MODEL 1
REMARK minimizedAffinity -9.22634697
REMARK  5 active torsions:
REMARK  status: ('A' for Active; 'I' for Inactive)
REMARK    1  A    between atoms: C2_2  and  C3_3 
REMARK    2  A    between atoms: C4_5  and  C5_6 
REMARK    3  A    between atoms: C5_6  and  C6_7 
REMARK    4  A    between atoms: C6_7  and  C7_8 
REMARK    5  A    between atoms: C7_8  and  C9_10 
ROOT
HETATM    1  C9  UNL     1       1.259   7.164  12.865  1.00  0.00    -0.001 C 
HETATM    2  C10 UNL     1       0.421   8.246  13.605  1.00  0.00     0.007 C 
HETATM    3  C11 UNL     1      -1.019   7.715  13.724  1.00  0.00     0.015 C 
HETATM    4  C12 UNL     1      -0.922   6.217  13.378  1.00  0.00    -0.004 C 
HETATM    5  C13 UNL     1      -0.480   5.474  14.674  1.00  0.00     0.021 C 
HETATM    6  C14 UNL     1      -2.144   5.463  12.880  1.00  0.00     0.007 C 
HETATM    7  C15 UNL     1      -2.056   4.365  12.087  1.00  0.00     0.007 C 
HETATM    8  C16 UNL     1      -0.665   3.945  11.631  1.00  0.00     0.157 C 
HETATM    9  O2  UNL     1      -0.498   2.880  11.038  1.00  0.00    -0.293 OA
HETATM   10  C17 UNL     1       0.547   4.827  11.906  1.00  0.00     0.094 C 
HETATM   11  C18 UNL     1       0.151   6.266  12.229  1.00  0.00    -0.022 C 
HETATM   12  C19 UNL     1      -0.377   6.939  10.920  1.00  0.00     0.017 C 
HETATM   13  C20 UNL     1      -3.266   3.525  11.600  1.00  0.00    -0.007 C 
HETATM   14  C21 UNL     1      -3.437   3.843  10.094  1.00  0.00     0.021 C 
HETATM   15  C22 UNL     1      -3.025   1.989  11.770  1.00  0.00     0.022 C 
HETATM   16  C23 UNL     1      -4.268   1.134  12.005  1.00  0.00     0.080 C 
HETATM   17  C24 UNL     1      -5.513   1.776  11.447  1.00  0.00     0.135 C 
HETATM   18  O3  UNL     1      -6.233   1.176  10.651  1.00  0.00    -0.297 OA
HETATM   19  C25 UNL     1      -5.863   3.165  11.992  1.00  0.00     0.018 C 
HETATM   20  C26 UNL     1      -6.680   3.946  10.944  1.00  0.00     0.023 C 
HETATM   21  C27 UNL     1      -6.779   2.939  13.214  1.00  0.00     0.023 C 
HETATM   22  C28 UNL     1      -4.544   3.881  12.442  1.00  0.00     0.021 C 
HETATM   23  C29 UNL     1      -4.699   5.392  12.596  1.00  0.00     0.090 C 
HETATM   24  C30 UNL     1      -3.494   5.939  13.313  1.00  0.00     0.157 C 
HETATM   25  O4  UNL     1      -3.623   6.769  14.207  1.00  0.00    -0.293 OA
ENDROOT
BRANCH   1  26
HETATM   26  C7  UNL     1       2.358   7.799  11.960  1.00  0.00    -0.014 C 
HETATM   27  C8  UNL     1       2.898   9.108  12.553  1.00  0.00     0.010 C 
BRANCH  26  28
HETATM   28  C6  UNL     1       1.810   8.078  10.531  1.00  0.00     0.008 C 
BRANCH  28  29
HETATM   29  C5  UNL     1       2.885   8.109   9.434  1.00  0.00     0.028 C 
BRANCH  29  30
HETATM   30  C4  UNL     1       3.089   6.803   8.722  1.00  0.00    -0.017 C 
HETATM   31  C2  UNL     1       2.585   6.447   7.525  1.00  0.00    -0.028 C 
HETATM   32  C1  UNL     1       1.746   7.287   6.617  1.00  0.00     0.051 C 
BRANCH  31  33
HETATM   33  C3  UNL     1       2.907   5.080   7.011  1.00  0.00     0.265 C 
HETATM   34  O1  UNL     1       3.572   4.256   7.626  1.00  0.00    -0.302 OA
ENDBRANCH  31  33
ENDBRANCH  29  30
ENDBRANCH  28  29
ENDBRANCH  26  28
ENDBRANCH   1  26
TORSDOF 5
ENDMDL
