MODEL 1
REMARK minimizedAffinity -7.29171133
REMARK  4 active torsions:
REMARK  status: ('A' for Active; 'I' for Inactive)
REMARK    1  A    between atoms: N1_5  and  C5_6 
REMARK    2  A    between atoms: C5_6  and  C6_7 
REMARK    3  A    between atoms: C6_7  and  N2_8 
REMARK    4  A    between atoms: N3_11  and  C9_12 
ROOT
HETATM    1  N2  UNL     1      -0.704  52.305 -22.286  1.00  0.00    -0.331 N 
HETATM    2  C7  UNL     1      -1.878  51.531 -21.982  1.00  0.00     0.148 C 
HETATM    3  C8  UNL     1      -1.855  51.437 -20.465  1.00  0.00     0.154 C 
HETATM    4  N3  UNL     1      -0.477  51.705 -20.108  1.00  0.00    -0.298 N 
HETATM    5  C15 UNL     1       0.202  52.273 -21.212  1.00  0.00     0.325 C 
HETATM    6  O1  UNL     1       1.354  52.666 -21.284  1.00  0.00    -0.247 OA
ENDROOT
BRANCH   1   7
HETATM    7  C6  UNL     1      -0.297  52.607 -23.650  1.00  0.00     0.158 C 
BRANCH   7   8
HETATM    8  C5  UNL     1      -1.421  52.378 -24.676  1.00  0.00     0.292 C 
BRANCH   8   9
HETATM    9  N1  UNL     1      -0.878  52.195 -26.030  1.00  0.00     0.091 N 
HETATM   10  C4  UNL     1       0.373  52.975 -26.193  1.00  0.00     0.283 C 
HETATM   11  C2  UNL     1       1.000  51.736 -26.893  1.00  0.00     0.005 C 
HETATM   12  C1  UNL     1       0.860  51.726 -28.415  1.00  0.00     0.018 C 
HETATM   13  C3  UNL     1       2.425  51.418 -26.456  1.00  0.00     0.018 C 
HETATM   14  C16 UNL     1      -0.099  50.938 -26.136  1.00  0.00     0.283 C 
ENDBRANCH   8   9
ENDBRANCH   7   8
ENDBRANCH   1   7
BRANCH   4  15
HETATM   15  C9  UNL     1       0.036  51.516 -18.797  1.00  0.00     0.040 A 
HETATM   16  C10 UNL     1       0.760  52.542 -18.162  1.00  0.00     0.030 A 
HETATM   17  C11 UNL     1       1.272  52.381 -16.869  1.00  0.00     0.004 A 
HETATM   18  C12 UNL     1       1.067  51.188 -16.184  1.00  0.00     0.024 A 
HETATM   19  C13 UNL     1       0.352  50.165 -16.796  1.00  0.00     0.036 A 
HETATM   20 CL1  UNL     1       0.092  48.689 -15.947  1.00  0.00    -0.084 Cl
HETATM   21  C14 UNL     1      -0.159  50.324 -18.089  1.00  0.00     0.053 A 
ENDBRANCH   4  15
TORSDOF 4
ENDMDL
