MODEL 1
REMARK minimizedAffinity -8.03484821
REMARK CNNscore 0.892815351
REMARK CNNaffinity 6.80651712
REMARK  9 active torsions:
REMARK  status: ('A' for Active; 'I' for Inactive)
REMARK    1  A    between atoms: C2_2  and  C32_37 
REMARK    2  A    between atoms: C3_3  and  C4_4 
REMARK    3  A    between atoms: C4_4  and  O1_5 
REMARK    4  A    between atoms: C4_4  and  C5_6 
REMARK    5  A    between atoms: C5_6  and  C6_7 
REMARK    6  A    between atoms: C6_7  and  C8_9 
REMARK    7  A    between atoms: C10_11  and  O2_12 
REMARK    8  A    between atoms: C31_35  and  O5_36 
REMARK    9  A    between atoms: C32_37  and  O7_39 
ROOT
HETATM    1  C8  UNL     1       4.241  56.800  -7.288  1.00  0.00     0.001 C 
HETATM    2  C9  UNL     1       5.313  55.824  -7.849  1.00  0.00     0.038 C 
HETATM    3  C10 UNL     1       4.581  54.769  -8.697  1.00  0.00     0.132 C 
HETATM    4  C11 UNL     1       3.155  55.349  -8.922  1.00  0.00     0.017 C 
HETATM    5  C12 UNL     1       3.203  56.363 -10.109  1.00  0.00     0.023 C 
HETATM    6  C13 UNL     1       1.980  54.405  -9.239  1.00  0.00    -0.029 C 
HETATM    7  C14 UNL     1       0.706  54.738  -8.895  1.00  0.00     0.002 C 
HETATM    8  C15 UNL     1       0.478  56.070  -8.182  1.00  0.00     0.157 C 
HETATM    9  O3  UNL     1      -0.654  56.539  -8.064  1.00  0.00    -0.293 OA
HETATM   10  C16 UNL     1       1.646  56.843  -7.590  1.00  0.00     0.094 C 
HETATM   11  C17 UNL     1       2.916  56.002  -7.506  1.00  0.00    -0.019 C 
HETATM   12  C18 UNL     1       2.750  54.954  -6.358  1.00  0.00     0.017 C 
HETATM   13  C19 UNL     1      -0.532  53.822  -9.092  1.00  0.00    -0.007 C 
HETATM   14  C20 UNL     1      -1.126  53.560  -7.672  1.00  0.00     0.021 C 
HETATM   15  C21 UNL     1      -1.596  54.496  -9.998  1.00  0.00     0.022 C 
HETATM   16  C22 UNL     1      -2.898  53.716 -10.105  1.00  0.00     0.080 C 
HETATM   17  C23 UNL     1      -2.708  52.223 -10.021  1.00  0.00     0.136 C 
HETATM   18  O4  UNL     1      -3.658  51.502  -9.709  1.00  0.00    -0.297 OA
HETATM   19  C24 UNL     1      -1.351  51.647 -10.431  1.00  0.00     0.025 C 
HETATM   20  C25 UNL     1      -1.307  50.160 -10.001  1.00  0.00     0.024 C 
HETATM   21  C26 UNL     1      -1.327  51.690 -11.994  1.00  0.00     0.044 C 
HETATM   22  C27 UNL     1      -0.353  52.652 -12.602  1.00  0.00    -0.029 C 
HETATM   23  C28 UNL     1       0.760  53.019 -11.960  1.00  0.00    -0.023 C 
HETATM   24  C29 UNL     1       1.079  52.432 -10.608  1.00  0.00     0.047 C 
HETATM   25  C30 UNL     1      -0.167  52.401  -9.700  1.00  0.00     0.024 C 
HETATM   26  C31 UNL     1       2.280  53.081  -9.896  1.00  0.00     0.156 C 
ENDROOT
BRANCH   1  27
HETATM   27  C6  UNL     1       4.620  57.322  -5.865  1.00  0.00    -0.011 C 
HETATM   28  C7  UNL     1       3.659  58.414  -5.381  1.00  0.00     0.010 C 
BRANCH  27  29
HETATM   29  C5  UNL     1       6.078  57.885  -5.861  1.00  0.00     0.040 C 
BRANCH  29  30
HETATM   30  C4  UNL     1       6.938  57.493  -4.640  1.00  0.00     0.142 C 
BRANCH  30  31
HETATM   31  C3  UNL     1       8.338  58.036  -4.688  1.00  0.00     0.018 C 
HETATM   32  C2  UNL     1       9.504  57.442  -5.022  1.00  0.00     0.010 C 
HETATM   33  C1  UNL     1       9.678  56.047  -5.541  1.00  0.00     0.055 C 
BRANCH  32  34
HETATM   34  C32 UNL     1      10.718  58.287  -4.891  1.00  0.00     0.171 C 
HETATM   35  O6  UNL     1      11.819  57.929  -4.506  1.00  0.00    -0.646 OA
BRANCH  34  36
HETATM   36  O7  UNL     1      10.509  59.556  -5.280  1.00  0.00    -0.773 OA
HETATM   37  H44 UNL     1      11.384  59.979  -5.154  1.00  0.00     0.167 HD
ENDBRANCH  34  36
ENDBRANCH  32  34
ENDBRANCH  30  31
BRANCH  30  38
HETATM   38  O1  UNL     1       6.260  57.891  -3.458  1.00  0.00    -0.392 OA
HETATM   39  H6  UNL     1       5.408  57.424  -3.444  1.00  0.00     0.210 HD
ENDBRANCH  30  38
ENDBRANCH  29  30
ENDBRANCH  27  29
ENDBRANCH   1  27
BRANCH   3  40
HETATM   40  O2  UNL     1       5.329  54.552  -9.883  1.00  0.00    -0.394 OA
HETATM   41  H17 UNL     1       4.722  54.074 -10.489  1.00  0.00     0.210 HD
ENDBRANCH   3  40
BRANCH  26  42
HETATM   42  O5  UNL     1       3.359  53.204 -10.825  1.00  0.00    -0.390 OA
HETATM   43  H43 UNL     1       3.423  52.356 -11.302  1.00  0.00     0.210 HD
ENDBRANCH  26  42
TORSDOF 9
ENDMDL
