MODEL 1
REMARK minimizedAffinity -7.58427668
REMARK CNNscore 0.769776404
REMARK CNNaffinity 6.45773935
REMARK  7 active torsions:
REMARK  status: ('A' for Active; 'I' for Inactive)
REMARK    1  A    between atoms: C2_2  and  C30_35 
REMARK    2  A    between atoms: C3_3  and  C4_4 
REMARK    3  A    between atoms: C4_4  and  O1_5 
REMARK    4  A    between atoms: C4_4  and  C5_6 
REMARK    5  A    between atoms: C5_6  and  C6_7 
REMARK    6  A    between atoms: C6_7  and  C8_9 
REMARK    7  A    between atoms: C30_35  and  O7_37 
ROOT
HETATM    1  C8  UNL     1       4.661  56.896  -7.005  1.00  0.00     0.006 C 
HETATM    2  C9  UNL     1       5.714  55.953  -7.637  1.00  0.00     0.085 C 
HETATM    3  C10 UNL     1       4.960  55.335  -8.797  1.00  0.00     0.141 C 
HETATM    4  O2  UNL     1       5.524  54.761  -9.719  1.00  0.00    -0.297 OA
HETATM    5  C11 UNL     1       3.464  55.693  -8.751  1.00  0.00     0.056 C 
HETATM    6  C12 UNL     1       3.384  56.833  -9.819  1.00  0.00     0.030 C 
HETATM    7  C13 UNL     1       2.324  54.754  -9.048  1.00  0.00     0.015 C 
HETATM    8  C14 UNL     1       1.041  55.091  -8.767  1.00  0.00     0.007 C 
HETATM    9  C15 UNL     1       0.847  56.336  -7.904  1.00  0.00     0.157 C 
HETATM   10  O3  UNL     1      -0.265  56.838  -7.767  1.00  0.00    -0.293 OA
HETATM   11  C16 UNL     1       2.034  56.971  -7.164  1.00  0.00     0.094 C 
HETATM   12  C17 UNL     1       3.318  56.140  -7.252  1.00  0.00    -0.014 C 
HETATM   13  C18 UNL     1       3.177  54.937  -6.272  1.00  0.00     0.018 C 
HETATM   14  C19 UNL     1      -0.193  54.267  -9.208  1.00  0.00    -0.007 C 
HETATM   15  C20 UNL     1      -0.729  53.524  -7.968  1.00  0.00     0.021 C 
HETATM   16  C21 UNL     1      -1.297  55.184  -9.803  1.00  0.00     0.022 C 
HETATM   17  C22 UNL     1      -2.401  54.512 -10.613  1.00  0.00     0.080 C 
HETATM   18  C23 UNL     1      -2.289  53.016 -10.730  1.00  0.00     0.135 C 
HETATM   19  O4  UNL     1      -3.312  52.330 -10.728  1.00  0.00    -0.297 OA
HETATM   20  C24 UNL     1      -0.908  52.402 -10.963  1.00  0.00     0.018 C 
HETATM   21  C25 UNL     1      -0.926  50.967 -10.392  1.00  0.00     0.023 C 
HETATM   22  C26 UNL     1      -0.731  52.291 -12.491  1.00  0.00     0.023 C 
HETATM   23  C27 UNL     1       0.234  53.303 -10.370  1.00  0.00     0.021 C 
HETATM   24  C28 UNL     1       1.483  52.499  -9.995  1.00  0.00     0.090 C 
HETATM   25  C29 UNL     1       2.595  53.349  -9.447  1.00  0.00     0.158 C 
HETATM   26  O5  UNL     1       3.679  52.834  -9.189  1.00  0.00    -0.293 OA
ENDROOT
BRANCH   1  27
HETATM   27  C6  UNL     1       5.094  57.446  -5.616  1.00  0.00    -0.011 C 
HETATM   28  C7  UNL     1       4.099  58.352  -4.886  1.00  0.00     0.010 C 
BRANCH  27  29
HETATM   29  C5  UNL     1       6.490  58.107  -5.678  1.00  0.00     0.040 C 
BRANCH  29  30
HETATM   30  C4  UNL     1       7.201  58.247  -4.318  1.00  0.00     0.142 C 
BRANCH  30  31
HETATM   31  C3  UNL     1       8.655  57.880  -4.390  1.00  0.00     0.018 C 
HETATM   32  C2  UNL     1       9.685  58.638  -4.820  1.00  0.00     0.010 C 
HETATM   33  C1  UNL     1       9.602  60.045  -5.327  1.00  0.00     0.055 C 
BRANCH  32  34
HETATM   34  C30 UNL     1      11.025  57.998  -4.770  1.00  0.00     0.171 C 
HETATM   35  O6  UNL     1      11.262  56.805  -4.850  1.00  0.00    -0.646 OA
BRANCH  34  36
HETATM   36  O7  UNL     1      12.021  58.885  -4.616  1.00  0.00    -0.773 OA
HETATM   37  H40 UNL     1      12.823  58.326  -4.623  1.00  0.00     0.167 HD
ENDBRANCH  34  36
ENDBRANCH  32  34
ENDBRANCH  30  31
BRANCH  30  38
HETATM   38  O1  UNL     1       7.125  59.614  -3.914  1.00  0.00    -0.392 OA
HETATM   39  H6  UNL     1       7.664  60.145  -4.524  1.00  0.00     0.210 HD
ENDBRANCH  30  38
ENDBRANCH  29  30
ENDBRANCH  27  29
ENDBRANCH   1  27
TORSDOF 7
ENDMDL
