MODEL 1
REMARK minimizedAffinity -8.63814735
REMARK  13 active torsions:
REMARK  status: ('A' for Active; 'I' for Inactive)
REMARK    1  A    between atoms: C4_4  and  C5_5 
REMARK    2  A    between atoms: C5_5  and  C6_6 
REMARK    3  A    between atoms: C6_6  and  C7_7 
REMARK    4  A    between atoms: C7_7  and  O1_9 
REMARK    5  A    between atoms: C7_7  and  C9_10 
REMARK    6  A    between atoms: C9_10  and  O2_11 
REMARK    7  A    between atoms: C9_10  and  C10_12 
REMARK    8  A    between atoms: C10_12  and  C11_13 
REMARK    9  A    between atoms: C11_13  and  C12_14 
REMARK   10  A    between atoms: C14_16  and  C15_17 
REMARK   11  A    between atoms: C15_17  and  C16_18 
REMARK   12  A    between atoms: C16_18  and  C17_19 
REMARK   13  A    between atoms: C23_25  and  O3_26 
ROOT
HETATM    1  C12 UNL     1      -3.786   3.899  11.741  1.00  0.00    -0.087 C 
HETATM    2  C13 UNL     1      -3.248   3.570  10.372  1.00  0.00     0.043 C 
HETATM    3  C14 UNL     1      -3.213   4.773  12.596  1.00  0.00    -0.024 C 
ENDROOT
BRANCH   1   4
HETATM    4  C11 UNL     1      -5.039   3.112  12.108  1.00  0.00     0.036 C 
BRANCH   4   5
HETATM    5  C10 UNL     1      -6.366   3.864  12.249  1.00  0.00     0.039 C 
BRANCH   5   6
HETATM    6  C9  UNL     1      -7.131   3.714  13.575  1.00  0.00     0.152 C 
BRANCH   6   7
HETATM    7  C7  UNL     1      -7.435   4.994  14.422  1.00  0.00     0.080 C 
HETATM    8  C8  UNL     1      -6.176   5.805  14.735  1.00  0.00     0.048 C 
BRANCH   7   9
HETATM    9  C6  UNL     1      -8.546   5.862  13.781  1.00  0.00     0.044 C 
BRANCH   9  10
HETATM   10  C5  UNL     1      -8.975   7.124  14.547  1.00  0.00     0.030 C 
BRANCH  10  11
HETATM   11  C4  UNL     1     -10.425   7.140  14.942  1.00  0.00    -0.025 C 
HETATM   12  C2  UNL     1     -11.491   7.392  14.157  1.00  0.00    -0.091 C 
HETATM   13  C1  UNL     1     -11.434   7.665  12.680  1.00  0.00     0.042 C 
HETATM   14  C3  UNL     1     -12.882   7.398  14.736  1.00  0.00     0.042 C 
ENDBRANCH  10  11
ENDBRANCH   9  10
ENDBRANCH   7   9
BRANCH   7  15
HETATM   15  O1  UNL     1      -7.906   4.507  15.696  1.00  0.00    -0.388 OA
HETATM   16  H15 UNL     1      -8.546   3.802  15.465  1.00  0.00     0.210 HD
ENDBRANCH   7  15
ENDBRANCH   6   7
BRANCH   6  17
HETATM   17  O2  UNL     1      -8.416   3.128  13.245  1.00  0.00    -0.393 OA
HETATM   18  H17 UNL     1      -8.238   2.253  12.856  1.00  0.00     0.210 HD
ENDBRANCH   6  17
ENDBRANCH   5   6
ENDBRANCH   4   5
ENDBRANCH   1   4
BRANCH   3  19
HETATM   19  C15 UNL     1      -1.994   5.669  12.518  1.00  0.00     0.030 C 
BRANCH  19  20
HETATM   20  C16 UNL     1      -2.108   7.145  12.896  1.00  0.00     0.042 C 
BRANCH  20  21
HETATM   21  C17 UNL     1      -0.820   8.009  12.779  1.00  0.00     0.065 C 
HETATM   22  C18 UNL     1      -1.219   9.438  13.221  1.00  0.00     0.046 C 
HETATM   23  C19 UNL     1       0.344   7.573  13.686  1.00  0.00     0.043 C 
HETATM   24  C20 UNL     1       1.160   6.421  13.135  1.00  0.00     0.044 C 
HETATM   25  C21 UNL     1       1.383   6.580  11.665  1.00  0.00    -0.021 A 
HETATM   26  C22 UNL     1       2.407   5.851  11.045  1.00  0.00     0.046 A 
HETATM   27  C27 UNL     1       0.575   7.417  10.891  1.00  0.00     0.082 A 
HETATM   28  C23 UNL     1       2.630   5.982   9.679  1.00  0.00     0.066 A 
HETATM   29  C24 UNL     1       1.840   6.822   8.905  1.00  0.00     0.046 A 
HETATM   30  C25 UNL     1       0.801   7.547   9.507  1.00  0.00    -0.025 A 
HETATM   31  C26 UNL     1      -0.064   8.449   8.672  1.00  0.00     0.051 C 
HETATM   32  O4  UNL     1      -0.461   8.151  11.398  1.00  0.00    -0.340 OA
BRANCH  28  33
HETATM   33  O3  UNL     1       3.652   5.261   9.131  1.00  0.00    -0.361 OA
HETATM   34  H38 UNL     1       3.699   5.466   8.184  1.00  0.00     0.217 HD
ENDBRANCH  28  33
ENDBRANCH  20  21
ENDBRANCH  19  20
ENDBRANCH   3  19
TORSDOF 13
ENDMDL
