MODEL 1
REMARK minimizedAffinity -10.137352
REMARK  6 active torsions:
REMARK  status: ('A' for Active; 'I' for Inactive)
REMARK    1  A    between atoms: C2_2  and  C30_32 
REMARK    2  A    between atoms: C3_3  and  C4_4 
REMARK    3  A    between atoms: C4_4  and  C5_6 
REMARK    4  A    between atoms: C5_6  and  C6_7 
REMARK    5  A    between atoms: C6_7  and  C8_9 
REMARK    6  A    between atoms: C30_32  and  O4_34 
ROOT
HETATM    1  C8  UNL     1      -3.544   7.679  14.485  1.00  0.00    -0.001 C 
HETATM    2  C9  UNL     1      -4.193   8.461  13.302  1.00  0.00     0.007 C 
HETATM    3  C10 UNL     1      -3.085   8.755  12.275  1.00  0.00     0.015 C 
HETATM    4  C11 UNL     1      -1.771   8.490  13.036  1.00  0.00    -0.013 C 
HETATM    5  C12 UNL     1      -1.485   9.785  13.863  1.00  0.00     0.021 C 
HETATM    6  C13 UNL     1      -0.494   8.205  12.248  1.00  0.00    -0.070 C 
HETATM    7  C14 UNL     1      -0.391   8.430  10.928  1.00  0.00    -0.022 C 
HETATM    8  C15 UNL     1       0.869   8.289  10.143  1.00  0.00     0.034 C 
HETATM    9  C16 UNL     1       2.162   8.232  10.998  1.00  0.00     0.013 C 
HETATM   10  C17 UNL     1       3.440   7.922  10.126  1.00  0.00     0.018 C 
HETATM   11  C18 UNL     1       4.635   8.773  10.614  1.00  0.00     0.023 C 
HETATM   12  C19 UNL     1       3.279   8.238   8.624  1.00  0.00     0.023 C 
HETATM   13  C20 UNL     1       3.796   6.434  10.220  1.00  0.00     0.135 C 
HETATM   14  O2  UNL     1       4.941   6.023  10.018  1.00  0.00    -0.297 OA
HETATM   15  C21 UNL     1       2.667   5.460  10.464  1.00  0.00     0.080 C 
HETATM   16  C22 UNL     1       1.798   5.810  11.671  1.00  0.00     0.017 C 
HETATM   17  C23 UNL     1       1.960   7.255  12.217  1.00  0.00    -0.031 C 
HETATM   18  C24 UNL     1       3.185   7.277  13.172  1.00  0.00     0.016 C 
HETATM   19  C25 UNL     1       0.702   7.725  13.077  1.00  0.00     0.024 C 
HETATM   20  C26 UNL     1       0.296   6.689  14.170  1.00  0.00     0.010 C 
HETATM   21  C27 UNL     1      -1.043   6.950  14.885  1.00  0.00     0.011 C 
HETATM   22  C28 UNL     1      -2.175   7.228  13.882  1.00  0.00    -0.029 C 
HETATM   23  C29 UNL     1      -2.392   5.958  13.002  1.00  0.00     0.016 C 
ENDROOT
BRANCH   1  24
HETATM   24  C6  UNL     1      -4.523   6.622  15.082  1.00  0.00    -0.007 C 
HETATM   25  C7  UNL     1      -5.906   7.211  15.385  1.00  0.00     0.011 C 
BRANCH  24  26
HETATM   26  C5  UNL     1      -4.687   5.431  14.105  1.00  0.00     0.087 C 
BRANCH  26  27
HETATM   27  C4  UNL     1      -6.055   5.370  13.440  1.00  0.00     0.150 C 
HETATM   28  O1  UNL     1      -6.745   6.366  13.248  1.00  0.00    -0.293 OA
BRANCH  27  29
HETATM   29  C3  UNL     1      -6.543   4.004  13.091  1.00  0.00     0.063 C 
HETATM   30  C2  UNL     1      -6.000   3.199  12.159  1.00  0.00     0.015 C 
HETATM   31  C1  UNL     1      -4.774   3.462  11.337  1.00  0.00     0.055 C 
BRANCH  30  32
HETATM   32  C30 UNL     1      -6.698   1.906  11.971  1.00  0.00     0.171 C 
HETATM   33  O3  UNL     1      -6.327   0.981  11.270  1.00  0.00    -0.646 OA
BRANCH  32  34
HETATM   34  O4  UNL     1      -7.829   1.824  12.686  1.00  0.00    -0.773 OA
HETATM   35  H44 UNL     1      -8.176   0.930  12.482  1.00  0.00     0.167 HD
ENDBRANCH  32  34
ENDBRANCH  30  32
ENDBRANCH  27  29
ENDBRANCH  26  27
ENDBRANCH  24  26
ENDBRANCH   1  24
TORSDOF 6
ENDMDL
