MODEL 1
REMARK minimizedAffinity -10.9536581
REMARK CNNscore 0.423586309
REMARK CNNaffinity 6.95336866
REMARK  0 active torsions:
REMARK  status: ('A' for Active; 'I' for Inactive)
ROOT
HETATM    1  C1  UNL     1      -8.866  48.083 -20.541  1.00  0.00     0.023 C 
HETATM    2  C2  UNL     1      -7.501  47.392 -20.752  1.00  0.00     0.017 C 
HETATM    3  C3  UNL     1      -7.754  46.111 -21.569  1.00  0.00     0.023 C 
HETATM    4  C4  UNL     1      -6.989  47.008 -19.360  1.00  0.00     0.135 C 
HETATM    5  O1  UNL     1      -7.322  45.966 -18.794  1.00  0.00    -0.297 OA
HETATM    6  C5  UNL     1      -6.115  48.015 -18.657  1.00  0.00     0.080 C 
HETATM    7  C6  UNL     1      -4.872  48.371 -19.465  1.00  0.00     0.017 C 
HETATM    8  C7  UNL     1      -4.991  48.192 -21.022  1.00  0.00    -0.035 C 
HETATM    9  C8  UNL     1      -4.485  46.765 -21.336  1.00  0.00     0.016 C 
HETATM   10  C9  UNL     1      -4.113  49.324 -21.715  1.00  0.00     0.003 C 
HETATM   11  C10 UNL     1      -2.608  49.250 -21.380  1.00  0.00     0.006 C 
HETATM   12  C11 UNL     1      -1.838  50.497 -21.822  1.00  0.00     0.006 C 
HETATM   13  C12 UNL     1      -2.033  50.817 -23.307  1.00  0.00    -0.000 C 
HETATM   14  C13 UNL     1      -1.222  52.035 -23.809  1.00  0.00     0.009 C 
HETATM   15  C14 UNL     1       0.296  52.132 -23.552  1.00  0.00     0.067 A 
HETATM   16  C15 UNL     1       0.805  53.031 -24.721  1.00  0.00     0.140 A 
HETATM   17  C16 UNL     1      -0.405  53.331 -25.615  1.00  0.00     0.042 C 
HETATM   18  C17 UNL     1      -1.340  52.149 -25.353  1.00  0.00    -0.037 C 
HETATM   19  C18 UNL     1      -0.811  50.922 -26.142  1.00  0.00     0.015 C 
HETATM   20  C19 UNL     1      -2.805  52.409 -25.726  1.00  0.00     0.010 C 
HETATM   21  C20 UNL     1      -3.730  51.292 -25.202  1.00  0.00     0.011 C 
HETATM   22  C21 UNL     1      -3.572  50.964 -23.673  1.00  0.00    -0.032 C 
HETATM   23  C22 UNL     1      -4.186  52.197 -22.927  1.00  0.00     0.016 C 
HETATM   24  C23 UNL     1      -4.343  49.587 -23.256  1.00  0.00    -0.032 C 
HETATM   25  C24 UNL     1      -3.814  48.404 -24.121  1.00  0.00     0.016 C 
HETATM   26  C25 UNL     1      -5.871  49.690 -23.516  1.00  0.00     0.011 C 
HETATM   27  C26 UNL     1      -6.685  48.528 -22.941  1.00  0.00     0.007 C 
HETATM   28  C27 UNL     1      -6.496  48.401 -21.420  1.00  0.00     0.009 C 
HETATM   29  O2  UNL     1       1.327  54.262 -24.198  1.00  0.00    -0.313 OA
HETATM   30  C28 UNL     1       1.294  54.244 -22.838  1.00  0.00     0.297 A 
HETATM   31  O3  UNL     1       1.694  55.134 -22.107  1.00  0.00    -0.262 OA
HETATM   32  C29 UNL     1       0.745  52.954 -22.393  1.00  0.00     0.175 A 
HETATM   33  C30 UNL     1       1.189  52.339 -21.087  1.00  0.00     0.218 A 
HETATM   34  O4  UNL     1      -0.097  52.959 -21.235  1.00  0.00    -0.364 OA
ENDROOT
TORSDOF 0
ENDMDL
