MODEL 1
REMARK minimizedAffinity -7.84414816
REMARK  4 active torsions:
REMARK  status: ('A' for Active; 'I' for Inactive)
REMARK    1  A    between atoms: N1_5  and  C5_6 
REMARK    2  A    between atoms: C5_6  and  C6_7 
REMARK    3  A    between atoms: C6_7  and  N2_8 
REMARK    4  A    between atoms: N3_11  and  C9_12 
ROOT
HETATM    1  N2  UNL     1      -0.197   4.794  12.185  1.00  0.00    -0.331 N 
HETATM    2  C7  UNL     1      -0.477   5.769  13.205  1.00  0.00     0.148 C 
HETATM    3  C8  UNL     1      -1.877   5.402  13.668  1.00  0.00     0.154 C 
HETATM    4  N3  UNL     1      -2.427   4.627  12.574  1.00  0.00    -0.298 N 
HETATM    5  C15 UNL     1      -1.388   4.227  11.702  1.00  0.00     0.325 C 
HETATM    6  O1  UNL     1      -1.452   3.535  10.700  1.00  0.00    -0.247 OA
ENDROOT
BRANCH   1   7
HETATM    7  C6  UNL     1       1.041   4.795  11.421  1.00  0.00     0.158 C 
BRANCH   7   8
HETATM    8  C5  UNL     1       1.458   6.201  10.953  1.00  0.00     0.292 C 
BRANCH   8   9
HETATM    9  N1  UNL     1       1.454   6.299   9.487  1.00  0.00     0.091 N 
HETATM   10  C4  UNL     1       1.134   7.684   9.063  1.00  0.00     0.283 C 
HETATM   11  C2  UNL     1       2.283   7.582   8.021  1.00  0.00     0.005 C 
HETATM   12  C1  UNL     1       1.845   7.105   6.636  1.00  0.00     0.018 C 
HETATM   13  C3  UNL     1       3.170   8.818   7.937  1.00  0.00     0.018 C 
HETATM   14  C16 UNL     1       2.827   6.461   8.950  1.00  0.00     0.283 C 
ENDBRANCH   8   9
ENDBRANCH   7   8
ENDBRANCH   1   7
BRANCH   4  15
HETATM   15  C9  UNL     1      -3.795   4.254  12.500  1.00  0.00     0.040 A 
HETATM   16  C10 UNL     1      -4.787   5.064  13.083  1.00  0.00     0.030 A 
HETATM   17  C11 UNL     1      -6.142   4.718  13.019  1.00  0.00     0.004 A 
HETATM   18  C12 UNL     1      -6.532   3.554  12.368  1.00  0.00     0.024 A 
HETATM   19  C13 UNL     1      -5.565   2.741  11.785  1.00  0.00     0.036 A 
HETATM   20 CL1  UNL     1      -6.047   1.301  10.974  1.00  0.00    -0.084 Cl
HETATM   21  C14 UNL     1      -4.211   3.085  11.849  1.00  0.00     0.053 A 
ENDBRANCH   4  15
TORSDOF 4
ENDMDL
