MODEL 1
REMARK minimizedAffinity -9.24390411
REMARK  9 active torsions:
REMARK  status: ('A' for Active; 'I' for Inactive)
REMARK    1  A    between atoms: C2_2  and  C3_3 
REMARK    2  A    between atoms: C2_2  and  C9_12 
REMARK    3  A    between atoms: C3_3  and  C4_4 
REMARK    4  A    between atoms: C4_4  and  C5_5 
REMARK    5  A    between atoms: C5_5  and  O1_6 
REMARK    6  A    between atoms: C5_5  and  C6_7 
REMARK    7  A    between atoms: C6_7  and  O2_9 
REMARK    8  A    between atoms: C6_7  and  C8_10 
REMARK    9  A    between atoms: C8_10  and  O3_11 
ROOT
HETATM    1  C9  UNL     1      -2.184   5.753  13.219  1.00  0.00    -0.002 C 
HETATM    2  C10 UNL     1      -2.252   5.210  11.765  1.00  0.00     0.007 C 
HETATM    3  C11 UNL     1      -0.868   5.446  11.130  1.00  0.00     0.015 C 
HETATM    4  C12 UNL     1       0.076   5.722  12.317  1.00  0.00    -0.005 C 
HETATM    5  C13 UNL     1       0.475   4.334  12.910  1.00  0.00     0.021 C 
HETATM    6  C14 UNL     1       1.405   6.437  12.111  1.00  0.00    -0.000 C 
HETATM    7  C15 UNL     1       1.958   7.185  13.104  1.00  0.00    -0.060 C 
HETATM    8  C16 UNL     1       1.223   7.387  14.435  1.00  0.00     0.036 C 
HETATM    9  C17 UNL     1      -0.185   6.776  14.581  1.00  0.00     0.015 C 
HETATM   10  C18 UNL     1      -0.877   6.601  13.225  1.00  0.00    -0.028 C 
HETATM   11  C19 UNL     1      -1.147   8.014  12.630  1.00  0.00     0.016 C 
HETATM   12  C20 UNL     1       3.317   7.918  12.944  1.00  0.00    -0.014 C 
HETATM   13  C21 UNL     1       2.967   9.344  12.456  1.00  0.00     0.020 C 
HETATM   14  C22 UNL     1       4.087   8.008  14.288  1.00  0.00     0.021 C 
HETATM   15  C23 UNL     1       5.490   8.580  14.149  1.00  0.00     0.080 C 
HETATM   16  C24 UNL     1       6.300   7.737  13.197  1.00  0.00     0.135 C 
HETATM   17  O4  UNL     1       7.414   7.333  13.529  1.00  0.00    -0.297 OA
HETATM   18  C25 UNL     1       5.709   7.484  11.802  1.00  0.00     0.018 C 
HETATM   19  C26 UNL     1       6.490   6.306  11.164  1.00  0.00     0.023 C 
HETATM   20  C27 UNL     1       5.976   8.721  10.931  1.00  0.00     0.023 C 
HETATM   21  C28 UNL     1       4.199   7.083  11.949  1.00  0.00     0.020 C 
HETATM   22  C29 UNL     1       3.468   6.926  10.613  1.00  0.00     0.090 C 
HETATM   23  C30 UNL     1       2.122   6.267  10.804  1.00  0.00     0.157 C 
HETATM   24  O5  UNL     1       1.625   5.624   9.881  1.00  0.00    -0.293 OA
ENDROOT
BRANCH   1  25
HETATM   25  C2  UNL     1      -3.550   6.281  13.758  1.00  0.00    -0.014 C 
HETATM   26  C1  UNL     1      -3.790   6.152  15.265  1.00  0.00     0.010 C 
BRANCH  25  27
HETATM   27  C3  UNL     1      -4.736   5.706  12.948  1.00  0.00     0.007 C 
BRANCH  27  28
HETATM   28  C4  UNL     1      -5.037   4.217  13.207  1.00  0.00     0.035 C 
BRANCH  28  29
HETATM   29  C5  UNL     1      -5.925   3.558  12.142  1.00  0.00     0.154 C 
BRANCH  29  30
HETATM   30  O1  UNL     1      -7.073   2.986  12.788  1.00  0.00    -0.392 OA
HETATM   31  H10 UNL     1      -7.496   2.438  12.093  1.00  0.00     0.210 HD
ENDBRANCH  29  30
BRANCH  29  32
HETATM   32  C6  UNL     1      -5.226   2.452  11.308  1.00  0.00     0.101 C 
HETATM   33  C7  UNL     1      -6.043   1.156  11.224  1.00  0.00     0.051 C 
BRANCH  32  34
HETATM   34  O2  UNL     1      -5.134   2.960   9.954  1.00  0.00    -0.385 OA
HETATM   35  H14 UNL     1      -4.381   2.480   9.548  1.00  0.00     0.210 HD
ENDBRANCH  32  34
BRANCH  32  36
HETATM   36  C8  UNL     1      -3.793   2.181  11.806  1.00  0.00     0.204 C 
BRANCH  36  37
HETATM   37  O3  UNL     1      -3.363   0.888  11.366  1.00  0.00    -0.398 OA
HETATM   38  H17 UNL     1      -3.700   0.234  12.005  1.00  0.00     0.209 HD
ENDBRANCH  36  37
ENDBRANCH  32  36
ENDBRANCH  29  32
ENDBRANCH  28  29
ENDBRANCH  27  28
ENDBRANCH  25  27
ENDBRANCH   1  25
TORSDOF 9
ENDMDL
