MODEL 1
REMARK minimizedAffinity -8.60812378
REMARK CNNscore 0.37976867
REMARK CNNaffinity 7.3831706
REMARK  13 active torsions:
REMARK  status: ('A' for Active; 'I' for Inactive)
REMARK    1  A    between atoms: O1_2  and  C2_3 
REMARK    2  A    between atoms: C12_14  and  C13_15 
REMARK    3  A    between atoms: C13_15  and  C15_17 
REMARK    4  A    between atoms: C15_17  and  C16_18 
REMARK    5  A    between atoms: C17_19  and  C18_20 
REMARK    6  A    between atoms: C18_20  and  O3_23 
REMARK    7  A    between atoms: C29_32  and  O4_33 
REMARK    8  A    between atoms: O4_33  and  C30_34 
REMARK    9  A    between atoms: C31_36  and  C32_37 
REMARK   10  A    between atoms: C32_37  and  O6_38 
REMARK   11  A    between atoms: C33_39  and  O7_40 
REMARK   12  A    between atoms: C34_41  and  O8_42 
REMARK   13  A    between atoms: C35_43  and  O9_44 
ROOT
HETATM    1  C2  UNL     1      -5.370  48.575 -20.987  1.00  0.00     0.270 C 
HETATM    2  O2  UNL     1      -5.992  47.753 -19.965  1.00  0.00    -0.344 OA
HETATM    3  C3  UNL     1      -4.958  47.315 -19.056  1.00  0.00     0.095 C 
HETATM    4  C4  UNL     1      -4.865  48.439 -18.029  1.00  0.00     0.008 C 
HETATM    5  C5  UNL     1      -4.198  49.576 -18.275  1.00  0.00    -0.021 C 
HETATM    6  C6  UNL     1      -3.551  49.832 -19.618  1.00  0.00     0.030 C 
HETATM    7  C7  UNL     1      -3.841  48.663 -20.655  1.00  0.00     0.024 C 
HETATM    8  C8  UNL     1      -3.038  48.857 -21.972  1.00  0.00     0.016 C 
HETATM    9  C9  UNL     1      -1.583  49.351 -21.837  1.00  0.00     0.011 C 
HETATM   10  C10 UNL     1      -1.472  50.590 -20.932  1.00  0.00    -0.032 C 
HETATM   11  C11 UNL     1      -2.236  51.770 -21.617  1.00  0.00     0.016 C 
HETATM   12  C12 UNL     1      -0.040  51.088 -20.544  1.00  0.00    -0.002 C 
HETATM   13  C22 UNL     1      -0.321  51.898 -19.229  1.00  0.00     0.006 C 
HETATM   14  C23 UNL     1      -1.706  51.466 -18.708  1.00  0.00     0.011 C 
HETATM   15  C24 UNL     1      -2.035  50.196 -19.510  1.00  0.00    -0.029 C 
HETATM   16  C25 UNL     1      -1.227  49.055 -18.797  1.00  0.00     0.016 C 
HETATM   17  C26 UNL     1      -3.700  47.286 -19.955  1.00  0.00     0.039 C 
HETATM   18  C27 UNL     1      -3.663  46.088 -20.923  1.00  0.00     0.011 C 
HETATM   19  C28 UNL     1      -3.911  44.764 -20.217  1.00  0.00     0.033 C 
HETATM   20  C29 UNL     1      -5.226  44.770 -19.437  1.00  0.00     0.136 C 
HETATM   21  C36 UNL     1      -5.289  45.930 -18.396  1.00  0.00     0.014 C 
HETATM   22  C37 UNL     1      -6.701  45.948 -17.752  1.00  0.00     0.021 C 
HETATM   23  C38 UNL     1      -4.270  45.609 -17.266  1.00  0.00     0.021 C 
ENDROOT
BRANCH  20  24
HETATM   24  O4  UNL     1      -6.284  44.908 -20.389  1.00  0.00    -0.352 OA
BRANCH  24  25
HETATM   25  C30 UNL     1      -6.234  43.935 -21.440  1.00  0.00     0.292 C 
HETATM   26  O5  UNL     1      -6.814  44.500 -22.612  1.00  0.00    -0.348 OA
HETATM   27  C31 UNL     1      -8.186  44.164 -22.848  1.00  0.00     0.179 C 
HETATM   28  C33 UNL     1      -8.990  44.069 -21.541  1.00  0.00     0.180 C 
HETATM   29  C34 UNL     1      -8.410  42.986 -20.615  1.00  0.00     0.183 C 
HETATM   30  C35 UNL     1      -6.943  42.672 -20.921  1.00  0.00     0.204 C 
BRANCH  27  31
HETATM   31  C32 UNL     1      -8.781  45.224 -23.791  1.00  0.00     0.198 C 
BRANCH  31  32
HETATM   32  O6  UNL     1      -7.998  45.444 -24.955  1.00  0.00    -0.398 OA
HETATM   33  H50 UNL     1      -7.497  44.612 -25.110  1.00  0.00     0.209 HD
ENDBRANCH  31  32
ENDBRANCH  27  31
BRANCH  28  34
HETATM   34  O7  UNL     1     -10.365  43.770 -21.794  1.00  0.00    -0.390 OA
HETATM   35  H52 UNL     1     -10.810  43.829 -20.925  1.00  0.00     0.210 HD
ENDBRANCH  28  34
BRANCH  29  36
HETATM   36  O8  UNL     1      -8.553  43.428 -19.249  1.00  0.00    -0.390 OA
HETATM   37  H54 UNL     1      -7.965  44.207 -19.170  1.00  0.00     0.210 HD
ENDBRANCH  29  36
BRANCH  30  38
HETATM   38  O9  UNL     1      -6.838  41.615 -21.880  1.00  0.00    -0.388 OA
HETATM   39  H56 UNL     1      -7.305  40.841 -21.518  1.00  0.00     0.210 HD
ENDBRANCH  30  38
ENDBRANCH  24  25
ENDBRANCH  20  24
BRANCH   1  40
HETATM   40  O1  UNL     1      -5.966  49.859 -21.115  1.00  0.00    -0.365 OA
HETATM   41  C1  UNL     1      -6.617  50.022 -22.377  1.00  0.00     0.204 C 
ENDBRANCH   1  40
BRANCH  12  42
HETATM   42  C13 UNL     1       0.820  51.910 -21.548  1.00  0.00    -0.010 C 
HETATM   43  C14 UNL     1       1.525  53.094 -20.880  1.00  0.00     0.010 C 
BRANCH  42  44
HETATM   44  C15 UNL     1      -0.075  52.416 -22.714  1.00  0.00     0.031 C 
BRANCH  44  45
HETATM   45  C16 UNL     1       0.659  52.534 -24.024  1.00  0.00    -0.027 C 
HETATM   46  C17 UNL     1       0.170  52.065 -25.185  1.00  0.00     0.006 C 
BRANCH  46  47
HETATM   47  C18 UNL     1       0.810  52.105 -26.560  1.00  0.00     0.070 C 
HETATM   48  C19 UNL     1       2.251  51.570 -26.475  1.00  0.00     0.050 C 
HETATM   49  C20 UNL     1       0.052  51.277 -27.610  1.00  0.00     0.050 C 
BRANCH  47  50
HETATM   50  O3  UNL     1       0.768  53.451 -27.062  1.00  0.00    -0.382 OA
HETATM   51  C21 UNL     1      -0.382  53.842 -27.790  1.00  0.00     0.202 C 
ENDBRANCH  47  50
ENDBRANCH  46  47
ENDBRANCH  44  45
ENDBRANCH  42  44
ENDBRANCH  12  42
TORSDOF 13
ENDMDL
