MODEL 1
REMARK minimizedAffinity -8.64445877
REMARK  6 active torsions:
REMARK  status: ('A' for Active; 'I' for Inactive)
REMARK    1  A    between atoms: O1_2  and  C2_3 
REMARK    2  A    between atoms: C7_8  and  C8_9 
REMARK    3  A    between atoms: C8_9  and  C9_10 
REMARK    4  A    between atoms: C9_10  and  O3_12 
REMARK    5  A    between atoms: C10_13  and  C11_14 
REMARK    6  A    between atoms: C10_13  and  C17_20 
ROOT
HETATM    1  C8  UNL     1      -1.439  51.030 -23.808  1.00  0.00     0.062 C 
HETATM    2  C10 UNL     1      -0.403  51.848 -24.142  1.00  0.00     0.002 C 
ENDROOT
BRANCH   1   3
HETATM    3  C7  UNL     1      -2.162  50.182 -24.786  1.00  0.00     0.015 A 
HETATM    4  C2  UNL     1      -3.094  49.211 -24.370  1.00  0.00     0.079 A 
HETATM    5  C3  UNL     1      -3.738  48.425 -25.334  1.00  0.00     0.037 A 
HETATM    6  C4  UNL     1      -3.465  48.603 -26.695  1.00  0.00     0.003 A 
HETATM    7  C5  UNL     1      -2.547  49.562 -27.106  1.00  0.00     0.001 A 
HETATM    8  C6  UNL     1      -1.895  50.348 -26.155  1.00  0.00     0.015 A 
BRANCH   4   9
HETATM    9  O1  UNL     1      -3.302  49.110 -23.018  1.00  0.00    -0.355 OA
HETATM   10  C1  UNL     1      -4.278  48.174 -22.573  1.00  0.00     0.210 C 
ENDBRANCH   4   9
ENDBRANCH   1   3
BRANCH   1  11
HETATM   11  C9  UNL     1      -1.860  50.891 -22.395  1.00  0.00     0.178 C 
HETATM   12  O2  UNL     1      -1.412  50.090 -21.596  1.00  0.00    -0.646 OA
BRANCH  11  13
HETATM   13  O3  UNL     1      -2.857  51.732 -22.069  1.00  0.00    -0.773 OA
HETATM   14  H8  UNL     1      -3.028  51.533 -21.127  1.00  0.00     0.167 HD
ENDBRANCH  11  13
ENDBRANCH   1  11
BRANCH   2  15
HETATM   15  C11 UNL     1       0.347  52.577 -23.086  1.00  0.00    -0.024 A 
HETATM   16  C12 UNL     1       0.715  51.933 -21.890  1.00  0.00     0.012 A 
HETATM   17  C13 UNL     1       1.430  52.625 -20.910  1.00  0.00     0.001 A 
HETATM   18  C14 UNL     1       1.777  53.963 -21.113  1.00  0.00     0.000 A 
HETATM   19  C15 UNL     1       1.410  54.612 -22.297  1.00  0.00     0.001 A 
HETATM   20  C16 UNL     1       0.702  53.922 -23.283  1.00  0.00     0.012 A 
ENDBRANCH   2  15
BRANCH   2  21
HETATM   21  C17 UNL     1      -0.003  51.993 -25.566  1.00  0.00    -0.024 A 
HETATM   22  C18 UNL     1       1.029  51.197 -26.092  1.00  0.00     0.012 A 
HETATM   23  C19 UNL     1       1.399  51.327 -27.433  1.00  0.00     0.001 A 
HETATM   24  C20 UNL     1       0.754  52.257 -28.251  1.00  0.00     0.000 A 
HETATM   25  C21 UNL     1      -0.254  53.068 -27.729  1.00  0.00     0.001 A 
HETATM   26  C22 UNL     1      -0.635  52.938 -26.392  1.00  0.00     0.012 A 
ENDBRANCH   2  21
TORSDOF 6
ENDMDL
