MODEL 1
REMARK minimizedAffinity -8.92905426
REMARK  12 active torsions:
REMARK  status: ('A' for Active; 'I' for Inactive)
REMARK    1  A    between atoms: C2_2  and  O1_3 
REMARK    2  A    between atoms: C2_2  and  C3_4 
REMARK    3  A    between atoms: C4_5  and  C5_6 
REMARK    4  A    between atoms: C5_6  and  O2_7 
REMARK    5  A    between atoms: C8_10  and  O3_11 
REMARK    6  A    between atoms: O3_11  and  C9_12 
REMARK    7  A    between atoms: C10_14  and  C11_15 
REMARK    8  A    between atoms: C11_15  and  O5_16 
REMARK    9  A    between atoms: C12_17  and  O6_18 
REMARK   10  A    between atoms: C13_19  and  O7_20 
REMARK   11  A    between atoms: C14_21  and  O8_22 
REMARK   12  A    between atoms: C15_23  and  O9_24 
ROOT
HETATM    1  C5  UNL     1      -3.624   4.094  12.367  1.00  0.00     0.088 C 
HETATM    2  C6  UNL     1      -2.549   5.214  12.072  1.00  0.00     0.052 C 
HETATM    3  C7  UNL     1      -2.176   5.982  13.359  1.00  0.00     0.016 C 
HETATM    4  C8  UNL     1      -1.297   4.673  11.322  1.00  0.00     0.160 C 
HETATM    5  C15 UNL     1      -1.051   3.199  11.655  1.00  0.00     0.148 C 
HETATM    6  C16 UNL     1      -2.205   2.317  11.165  1.00  0.00     0.046 C 
HETATM    7  C17 UNL     1      -3.624   2.956  11.275  1.00  0.00    -0.010 C 
HETATM    8  C18 UNL     1      -4.059   3.500   9.890  1.00  0.00     0.018 C 
HETATM    9  C19 UNL     1      -4.623   1.814  11.609  1.00  0.00     0.018 C 
ENDROOT
BRANCH   4  10
HETATM   10  O3  UNL     1      -0.092   5.408  11.601  1.00  0.00    -0.350 OA
BRANCH  10  11
HETATM   11  C9  UNL     1       0.238   6.368  10.592  1.00  0.00     0.292 C 
HETATM   12  O4  UNL     1       1.263   5.883   9.730  1.00  0.00    -0.348 OA
HETATM   13  C10 UNL     1       2.608   6.094  10.168  1.00  0.00     0.179 C 
HETATM   14  C12 UNL     1       2.762   6.418  11.663  1.00  0.00     0.180 C 
HETATM   15  C13 UNL     1       1.905   7.635  12.042  1.00  0.00     0.183 C 
HETATM   16  C14 UNL     1       0.593   7.717  11.249  1.00  0.00     0.204 C 
BRANCH  13  17
HETATM   17  C11 UNL     1       3.409   4.843   9.780  1.00  0.00     0.198 C 
BRANCH  17  18
HETATM   18  O5  UNL     1       2.735   3.642  10.140  1.00  0.00    -0.398 OA
HETATM   19  H18 UNL     1       2.786   3.567  11.110  1.00  0.00     0.209 HD
ENDBRANCH  17  18
ENDBRANCH  13  17
BRANCH  14  20
HETATM   20  O6  UNL     1       4.130   6.707  11.994  1.00  0.00    -0.390 OA
HETATM   21  H20 UNL     1       4.657   5.929  11.716  1.00  0.00     0.210 HD
ENDBRANCH  14  20
BRANCH  15  22
HETATM   22  O7  UNL     1       1.620   7.569  13.451  1.00  0.00    -0.390 OA
HETATM   23  H22 UNL     1       1.447   8.479  13.745  1.00  0.00     0.210 HD
ENDBRANCH  15  22
BRANCH  16  24
HETATM   24  O8  UNL     1       0.726   8.748  10.255  1.00  0.00    -0.388 OA
HETATM   25  H24 UNL     1      -0.101   8.778   9.746  1.00  0.00     0.210 HD
ENDBRANCH  16  24
ENDBRANCH  10  11
ENDBRANCH   4  10
BRANCH   5  26
HETATM   26  O9  UNL     1       0.152   2.742  11.032  1.00  0.00    -0.393 OA
HETATM   27  H26 UNL     1       0.847   3.360  11.335  1.00  0.00     0.210 HD
ENDBRANCH   5  26
BRANCH   1  28
HETATM   28  C4  UNL     1      -5.021   4.645  12.623  1.00  0.00     0.010 C 
HETATM   29  C3  UNL     1      -6.118   3.987  13.037  1.00  0.00     0.003 C 
BRANCH  29  30
HETATM   30  C2  UNL     1      -7.498   4.545  13.249  1.00  0.00     0.136 C 
HETATM   31  C1  UNL     1      -8.160   5.197  12.039  1.00  0.00     0.043 C 
BRANCH  30  32
HETATM   32  O1  UNL     1      -8.302   3.452  13.686  1.00  0.00    -0.392 OA
HETATM   33  H5  UNL     1      -9.210   3.784  13.793  1.00  0.00     0.210 HD
ENDBRANCH  30  32
ENDBRANCH  29  30
ENDBRANCH   1  28
BRANCH   1  34
HETATM   34  O2  UNL     1      -3.278   3.523  13.647  1.00  0.00    -0.385 OA
HETATM   35  H8  UNL     1      -3.047   2.583  13.550  1.00  0.00     0.211 HD
ENDBRANCH   1  34
TORSDOF 12
ENDMDL
