MODEL 1
REMARK minimizedAffinity -9.41170216
REMARK CNNscore 0.475952059
REMARK CNNaffinity 7.48445082
REMARK  11 active torsions:
REMARK  status: ('A' for Active; 'I' for Inactive)
REMARK    1  A    between atoms: C2_2  and  C4_4 
REMARK    2  A    between atoms: C4_4  and  C6_6 
REMARK    3  A    between atoms: C7_7  and  C8_8 
REMARK    4  A    between atoms: C8_8  and  C10_10 
REMARK    5  A    between atoms: C24_24  and  O1_25 
REMARK    6  A    between atoms: O1_25  and  C25_26 
REMARK    7  A    between atoms: C26_28  and  C27_29 
REMARK    8  A    between atoms: C27_29  and  O3_30 
REMARK    9  A    between atoms: C28_31  and  O4_32 
REMARK   10  A    between atoms: C29_33  and  O5_34 
REMARK   11  A    between atoms: C30_35  and  O6_36 
ROOT
HETATM    1  C10 UNL     1      -3.398  51.337 -24.545  1.00  0.00     0.001 C 
HETATM    2  C11 UNL     1      -4.841  51.731 -24.131  1.00  0.00     0.006 C 
HETATM    3  C12 UNL     1      -4.919  51.586 -22.601  1.00  0.00     0.009 C 
HETATM    4  C13 UNL     1      -3.480  51.307 -22.183  1.00  0.00     0.036 C 
HETATM    5  C14 UNL     1      -2.892  50.477 -23.345  1.00  0.00    -0.033 C 
HETATM    6  C15 UNL     1      -3.403  49.025 -23.406  1.00  0.00     0.016 C 
HETATM    7  C16 UNL     1      -1.361  50.483 -23.166  1.00  0.00     0.010 C 
HETATM    8  C17 UNL     1      -0.947  49.894 -21.808  1.00  0.00     0.010 C 
HETATM    9  C18 UNL     1      -1.647  50.556 -20.601  1.00  0.00     0.039 C 
HETATM   10  C19 UNL     1      -3.196  50.769 -20.775  1.00  0.00     0.123 C 
HETATM   11  C20 UNL     1      -4.030  49.607 -20.290  1.00  0.00     0.014 C 
HETATM   12  C21 UNL     1      -3.811  49.287 -19.003  1.00  0.00     0.014 C 
HETATM   13  C22 UNL     1      -2.694  50.089 -18.375  1.00  0.00     0.124 C 
HETATM   14  C23 UNL     1      -2.473  49.811 -16.892  1.00  0.00     0.078 C 
HETATM   15  C24 UNL     1      -1.396  50.730 -16.276  1.00  0.00     0.128 C 
HETATM   16  C31 UNL     1      -0.467  51.393 -17.312  1.00  0.00     0.033 C 
HETATM   17  C32 UNL     1      -0.133  50.479 -18.489  1.00  0.00     0.015 C 
HETATM   18  C33 UNL     1      -1.379  49.865 -19.200  1.00  0.00     0.001 C 
HETATM   19  C34 UNL     1      -1.068  48.347 -19.347  1.00  0.00     0.019 C 
HETATM   20  O7  UNL     1      -3.070  51.491 -18.476  1.00  0.00    -0.223 OA
HETATM   21  O8  UNL     1      -3.552  51.829 -19.847  1.00  0.00    -0.224 OA
ENDROOT
BRANCH  15  22
HETATM   22  O1  UNL     1      -0.678  49.916 -15.337  1.00  0.00    -0.353 OA
BRANCH  22  23
HETATM   23  C25 UNL     1       0.285  50.634 -14.555  1.00  0.00     0.292 C 
HETATM   24  O2  UNL     1       1.404  49.797 -14.279  1.00  0.00    -0.348 OA
HETATM   25  C26 UNL     1       2.409  50.453 -13.486  1.00  0.00     0.179 C 
HETATM   26  C28 UNL     1       1.839  50.922 -12.131  1.00  0.00     0.180 C 
HETATM   27  C29 UNL     1       0.577  51.769 -12.355  1.00  0.00     0.183 C 
HETATM   28  C30 UNL     1      -0.413  51.017 -13.243  1.00  0.00     0.204 C 
BRANCH  25  29
HETATM   29  C27 UNL     1       3.584  49.480 -13.273  1.00  0.00     0.198 C 
BRANCH  29  30
HETATM   30  O3  UNL     1       4.694  49.814 -14.116  1.00  0.00    -0.398 OA
HETATM   31  H41 UNL     1       4.963  50.724 -13.900  1.00  0.00     0.209 HD
ENDBRANCH  29  30
ENDBRANCH  25  29
BRANCH  26  32
HETATM   32  O4  UNL     1       2.833  51.662 -11.409  1.00  0.00    -0.390 OA
HETATM   33  H43 UNL     1       2.698  52.611 -11.570  1.00  0.00     0.210 HD
ENDBRANCH  26  32
BRANCH  27  34
HETATM   34  O5  UNL     1      -0.038  52.096 -11.101  1.00  0.00    -0.390 OA
HETATM   35  H45 UNL     1      -0.955  52.363 -11.323  1.00  0.00     0.210 HD
ENDBRANCH  27  34
BRANCH  28  36
HETATM   36  O6  UNL     1      -1.556  51.856 -13.482  1.00  0.00    -0.388 OA
HETATM   37  H47 UNL     1      -2.106  51.355 -14.117  1.00  0.00     0.210 HD
ENDBRANCH  28  36
ENDBRANCH  22  23
ENDBRANCH  15  22
BRANCH   1  38
HETATM   38  C8  UNL     1      -3.238  50.790 -25.993  1.00  0.00     0.008 C 
HETATM   39  C9  UNL     1      -3.624  49.304 -26.037  1.00  0.00     0.014 C 
BRANCH  38  40
HETATM   40  C7  UNL     1      -1.895  51.046 -26.648  1.00  0.00    -0.026 C 
HETATM   41  C6  UNL     1      -1.173  52.177 -26.593  1.00  0.00    -0.026 C 
BRANCH  41  42
HETATM   42  C4  UNL     1       0.149  52.456 -27.288  1.00  0.00     0.007 C 
HETATM   43  C5  UNL     1       0.434  51.543 -28.489  1.00  0.00     0.014 C 
BRANCH  42  44
HETATM   44  C2  UNL     1       1.310  52.511 -26.259  1.00  0.00    -0.015 C 
HETATM   45  C1  UNL     1       0.842  52.795 -24.828  1.00  0.00     0.010 C 
HETATM   46  C3  UNL     1       2.157  51.233 -26.279  1.00  0.00     0.010 C 
ENDBRANCH  42  44
ENDBRANCH  41  42
ENDBRANCH  38  40
ENDBRANCH   1  38
TORSDOF 11
ENDMDL
