MODEL 1
REMARK minimizedAffinity -10.3035412
REMARK CNNscore 0.765033245
REMARK CNNaffinity 7.78085184
REMARK  13 active torsions:
REMARK  status: ('A' for Active; 'I' for Inactive)
REMARK    1  A    between atoms: C19_21  and  O3_22 
REMARK    2  A    between atoms: C19_21  and  C20_23 
REMARK    3  A    between atoms: C20_23  and  C21_25 
REMARK    4  A    between atoms: C21_25  and  O5_26 
REMARK    5  A    between atoms: O5_26  and  C22_27 
REMARK    6  A    between atoms: C22_27  and  C23_29 
REMARK    7  A    between atoms: C23_29  and  C24_30 
REMARK    8  A    between atoms: C24_30  and  C25_31 
REMARK       I    between atoms: C25_31  and  N1_33 
REMARK    9  A    between atoms: N1_33  and  C26_34 
REMARK   10  A    between atoms: C26_34  and  C27_35 
REMARK   11  A    between atoms: C27_35  and  C28_36 
REMARK   12  A    between atoms: C27_35  and  C29_39 
REMARK   13  A    between atoms: C28_36  and  O9_38 
ROOT
HETATM    1  C20 UNL     1      -7.119  48.046 -21.634  1.00  0.00     0.185 C 
HETATM    2  O4  UNL     1      -7.065  46.823 -21.481  1.00  0.00    -0.292 OA
ENDROOT
BRANCH   1   3
HETATM    3  C19 UNL     1      -6.237  49.019 -20.814  1.00  0.00     0.128 C 
HETATM    4  C14 UNL     1      -4.709  49.080 -21.153  1.00  0.00     0.005 C 
HETATM    5  C13 UNL     1      -4.313  49.895 -22.396  1.00  0.00     0.091 C 
HETATM    6  C15 UNL     1      -4.084  47.658 -21.286  1.00  0.00     0.019 C 
HETATM    7  C16 UNL     1      -4.200  49.834 -19.880  1.00  0.00     0.002 C 
HETATM    8  C12 UNL     1      -2.812  50.166 -22.367  1.00  0.00     0.133 C 
HETATM    9  C11 UNL     1      -2.306  50.902 -21.117  1.00  0.00     0.072 C 
HETATM   10  O2  UNL     1      -2.092  49.847 -23.308  1.00  0.00    -0.297 OA
HETATM   11  C2  UNL     1      -0.816  51.359 -21.099  1.00  0.00    -0.009 C 
HETATM   12  C10 UNL     1      -2.676  50.045 -19.867  1.00  0.00     0.003 C 
HETATM   13  C1  UNL     1       0.152  50.158 -20.980  1.00  0.00     0.021 C 
HETATM   14  C3  UNL     1      -0.459  52.189 -22.361  1.00  0.00     0.022 C 
HETATM   15  C7  UNL     1      -0.655  52.273 -19.873  1.00  0.00    -0.067 C 
HETATM   16  C4  UNL     1       0.912  52.860 -22.273  1.00  0.00     0.084 C 
HETATM   17  C5  UNL     1       1.081  53.635 -20.992  1.00  0.00     0.149 C 
HETATM   18  O1  UNL     1       1.933  54.514 -20.863  1.00  0.00    -0.293 OA
HETATM   19  C6  UNL     1       0.216  53.298 -19.837  1.00  0.00     0.053 C 
HETATM   20  C8  UNL     1      -1.609  52.079 -18.707  1.00  0.00     0.035 C 
HETATM   21  C9  UNL     1      -2.132  50.654 -18.558  1.00  0.00     0.010 C 
HETATM   22  C17 UNL     1      -4.846  49.045 -18.746  1.00  0.00     0.009 C 
HETATM   23  C18 UNL     1      -6.231  48.653 -19.302  1.00  0.00     0.047 C 
BRANCH   3  24
HETATM   24  O3  UNL     1      -6.807  50.336 -20.927  1.00  0.00    -0.381 OA
HETATM   25  H25 UNL     1      -6.868  50.570 -21.871  1.00  0.00     0.211 HD
ENDBRANCH   3  24
ENDBRANCH   1   3
BRANCH   1  26
HETATM   26  C21 UNL     1      -7.975  48.631 -22.761  1.00  0.00     0.260 C 
BRANCH  26  27
HETATM   27  O5  UNL     1      -7.216  49.049 -23.887  1.00  0.00    -0.314 OA
BRANCH  27  28
HETATM   28  C22 UNL     1      -6.767  48.041 -24.685  1.00  0.00     0.259 C 
HETATM   29  O6  UNL     1      -7.432  47.081 -25.048  1.00  0.00    -0.265 OA
BRANCH  28  30
HETATM   30  C23 UNL     1      -5.301  48.241 -24.988  1.00  0.00     0.120 C 
BRANCH  30  31
HETATM   31  C24 UNL     1      -5.062  48.319 -26.492  1.00  0.00     0.112 C 
BRANCH  31  32
HETATM   32  C25 UNL     1      -3.656  48.789 -26.807  1.00  0.00     0.218 C 
HETATM   33  O7  UNL     1      -2.658  48.102 -26.616  1.00  0.00    -0.274 OA
HETATM   34  N1  UNL     1      -3.620  50.044 -27.369  1.00  0.00    -0.360 N 
HETATM   35  H32 UNL     1      -4.399  50.664 -27.172  1.00  0.00     0.162 HD
BRANCH  34  36
HETATM   36  C26 UNL     1      -2.350  50.697 -27.670  1.00  0.00     0.142 C 
BRANCH  36  37
HETATM   37  C27 UNL     1      -1.608  51.218 -26.421  1.00  0.00     0.134 C 
BRANCH  37  38
HETATM   38  C28 UNL     1      -2.239  52.501 -25.885  1.00  0.00     0.150 C 
HETATM   39  O8  UNL     1      -3.414  52.832 -25.923  1.00  0.00    -0.649 OA
BRANCH  38  40
HETATM   40  O9  UNL     1      -1.344  53.374 -25.368  1.00  0.00    -0.776 OA
HETATM   41  H36 UNL     1      -1.902  54.156 -25.165  1.00  0.00     0.167 HD
ENDBRANCH  38  40
ENDBRANCH  37  38
BRANCH  37  42
HETATM   42  C29 UNL     1      -0.122  51.352 -26.750  1.00  0.00    -0.042 A 
HETATM   43  C30 UNL     1       0.256  51.784 -28.032  1.00  0.00     0.008 A 
HETATM   44  C31 UNL     1       1.603  51.952 -28.359  1.00  0.00     0.001 A 
HETATM   45  C32 UNL     1       2.590  51.692 -27.412  1.00  0.00     0.000 A 
HETATM   46  C33 UNL     1       2.231  51.280 -26.130  1.00  0.00     0.001 A 
HETATM   47  C34 UNL     1       0.884  51.120 -25.797  1.00  0.00     0.008 A 
ENDBRANCH  37  42
ENDBRANCH  36  37
ENDBRANCH  34  36
ENDBRANCH  31  32
ENDBRANCH  30  31
ENDBRANCH  28  30
ENDBRANCH  27  28
ENDBRANCH  26  27
ENDBRANCH   1  26
TORSDOF 13
ENDMDL
