MODEL 1
REMARK minimizedAffinity -9.13911724
REMARK  6 active torsions:
REMARK  status: ('A' for Active; 'I' for Inactive)
REMARK    1  A    between atoms: C3_3  and  C4_4 
REMARK    2  A    between atoms: C4_4  and  O1_5 
REMARK    3  A    between atoms: C6_9  and  C7_10 
REMARK    4  A    between atoms: C7_10  and  C9_12 
REMARK    5  A    between atoms: C15_18  and  O4_19 
REMARK    6  A    between atoms: C16_20  and  C17_21 
ROOT
HETATM    1  C9  UNL     1       0.817   6.204  11.631  1.00  0.00     0.000 C 
HETATM    2  C10 UNL     1       1.104   6.327  10.104  1.00  0.00     0.006 C 
HETATM    3  C11 UNL     1       2.419   7.098   9.938  1.00  0.00     0.006 C 
HETATM    4  C12 UNL     1       2.969   7.182  11.350  1.00  0.00    -0.001 C 
HETATM    5  C13 UNL     1       4.072   8.212  11.639  1.00  0.00    -0.002 C 
HETATM    6  C14 UNL     1       5.269   8.023  10.695  1.00  0.00     0.038 C 
HETATM    7  C15 UNL     1       6.399   9.002  11.003  1.00  0.00     0.135 C 
HETATM    8  C16 UNL     1       6.864   8.971  12.472  1.00  0.00     0.053 C 
HETATM    9  C18 UNL     1       7.597   7.658  12.824  1.00  0.00     0.028 C 
HETATM   10  C19 UNL     1       7.586   7.583  14.349  1.00  0.00     0.080 C 
HETATM   11  C20 UNL     1       6.388   8.423  14.722  1.00  0.00     0.137 C 
HETATM   12  O6  UNL     1       6.037   8.591  15.883  1.00  0.00    -0.297 OA
HETATM   13  C21 UNL     1       5.688   9.031  13.504  1.00  0.00     0.037 C 
HETATM   14  C22 UNL     1       5.203  10.456  13.804  1.00  0.00     0.025 C 
HETATM   15  C23 UNL     1       4.515   8.058  13.118  1.00  0.00     0.007 C 
HETATM   16  C24 UNL     1       3.296   8.128  14.072  1.00  0.00     0.007 C 
HETATM   17  C25 UNL     1       2.166   7.154  13.689  1.00  0.00     0.010 C 
HETATM   18  C26 UNL     1       1.701   7.349  12.232  1.00  0.00    -0.036 C 
HETATM   19  C27 UNL     1       1.009   8.724  12.062  1.00  0.00     0.016 C 
ENDROOT
BRANCH   1  20
HETATM   20  C7  UNL     1      -0.718   6.134  11.952  1.00  0.00     0.016 C 
HETATM   21  C8  UNL     1      -1.261   7.483  12.439  1.00  0.00     0.013 C 
BRANCH  20  22
HETATM   22  C6  UNL     1      -1.024   5.015  13.014  1.00  0.00     0.140 C 
HETATM   23  O3  UNL     1      -0.918   3.701  12.424  1.00  0.00    -0.311 OA
HETATM   24  C5  UNL     1      -1.946   3.170  11.711  1.00  0.00     0.292 C 
HETATM   25  C3  UNL     1      -3.252   3.892  11.764  1.00  0.00     0.042 C 
HETATM   26  O2  UNL     1      -1.806   2.129  11.083  1.00  0.00    -0.260 OA
HETATM   27  C2  UNL     1      -3.483   4.765  12.769  1.00  0.00    -0.067 C 
HETATM   28  C1  UNL     1      -4.777   5.482  13.024  1.00  0.00     0.044 C 
HETATM   29  C28 UNL     1      -2.373   5.075  13.737  1.00  0.00     0.067 C 
BRANCH  25  30
HETATM   30  C4  UNL     1      -4.243   3.490  10.711  1.00  0.00     0.209 C 
BRANCH  30  31
HETATM   31  O1  UNL     1      -3.605   3.489   9.438  1.00  0.00    -0.396 OA
HETATM   32  H6  UNL     1      -3.375   4.408   9.222  1.00  0.00     0.209 HD
ENDBRANCH  30  31
ENDBRANCH  25  30
ENDBRANCH  20  22
ENDBRANCH   1  20
BRANCH   7  33
HETATM   33  O4  UNL     1       5.911  10.305  10.669  1.00  0.00    -0.394 OA
HETATM   34  H22 UNL     1       6.699  10.883  10.584  1.00  0.00     0.210 HD
ENDBRANCH   7  33
BRANCH   8  35
HETATM   35  C17 UNL     1       7.890  10.101  12.672  1.00  0.00     0.244 C 
HETATM   36  O5  UNL     1       9.099   9.968  12.491  1.00  0.00    -0.306 OA
ENDBRANCH   8  35
TORSDOF 6
ENDMDL
