MODEL 1
REMARK minimizedAffinity -8.71257973
REMARK  11 active torsions:
REMARK  status: ('A' for Active; 'I' for Inactive)
REMARK    1  A    between atoms: C2_2  and  C3_3 
REMARK    2  A    between atoms: C2_2  and  C4_5 
REMARK    3  A    between atoms: C3_3  and  O1_4 
REMARK    4  A    between atoms: C13_14  and  C14_15 
REMARK    5  A    between atoms: C14_15  and  C16_17 
REMARK    6  A    between atoms: C16_17  and  C17_18 
REMARK    7  A    between atoms: C17_18  and  C18_19 
REMARK    8  A    between atoms: C27_28  and  C28_29 
REMARK    9  A    between atoms: C28_29  and  C29_30 
REMARK   10  A    between atoms: C29_30  and  C30_31 
REMARK   11  A    between atoms: C30_31  and  O3_33 
ROOT
HETATM    1  C4  UNL     1       3.784   8.517  10.976  1.00  0.00     0.025 C 
HETATM    2  C5  UNL     1       3.360   9.207  12.302  1.00  0.00     0.010 C 
HETATM    3  C6  UNL     1       1.871   9.152  12.655  1.00  0.00     0.007 C 
HETATM    4  C7  UNL     1       1.020   8.448  11.602  1.00  0.00     0.004 C 
HETATM    5  C8  UNL     1       1.592   7.067  11.211  1.00  0.00    -0.027 A 
HETATM    6  C9  UNL     1       0.565   6.143  10.559  1.00  0.00     0.011 C 
HETATM    7  C10 UNL     1      -0.718   5.932  11.389  1.00  0.00     0.011 C 
HETATM    8  C11 UNL     1      -0.980   7.009  12.461  1.00  0.00    -0.032 C 
HETATM    9  C12 UNL     1      -0.255   6.590  13.774  1.00  0.00     0.016 C 
HETATM   10  C13 UNL     1      -2.484   7.292  12.801  1.00  0.00    -0.002 C 
HETATM   11  C22 UNL     1      -2.434   8.741  13.375  1.00  0.00     0.006 C 
HETATM   12  C23 UNL     1      -1.076   9.354  12.977  1.00  0.00     0.011 C 
HETATM   13  C24 UNL     1      -0.518   8.404  11.902  1.00  0.00    -0.032 C 
HETATM   14  C25 UNL     1      -1.242   8.821  10.570  1.00  0.00     0.016 C 
HETATM   15  C26 UNL     1       2.711   6.330  11.936  1.00  0.00     0.022 A 
HETATM   16  C27 UNL     1       3.074   7.152  10.726  1.00  0.00    -0.024 A 
ENDROOT
BRANCH  10  17
HETATM   17  C14 UNL     1      -3.280   6.321  13.728  1.00  0.00    -0.014 C 
HETATM   18  C15 UNL     1      -2.837   4.865  13.552  1.00  0.00     0.010 C 
BRANCH  17  19
HETATM   19  C16 UNL     1      -4.804   6.451  13.450  1.00  0.00     0.008 C 
BRANCH  19  20
HETATM   20  C17 UNL     1      -5.605   5.173  13.723  1.00  0.00     0.028 C 
BRANCH  20  21
HETATM   21  C18 UNL     1      -5.448   4.182  12.601  1.00  0.00    -0.025 C 
HETATM   22  C19 UNL     1      -6.262   3.150  12.302  1.00  0.00    -0.091 C 
HETATM   23  C20 UNL     1      -5.970   2.257  11.126  1.00  0.00     0.042 C 
HETATM   24  C21 UNL     1      -7.490   2.769  13.082  1.00  0.00     0.042 C 
ENDBRANCH  20  21
ENDBRANCH  19  20
ENDBRANCH  17  19
ENDBRANCH  10  17
BRANCH  16  25
HETATM   25  C28 UNL     1       3.332   6.511   9.350  1.00  0.00     0.021 C 
BRANCH  25  26
HETATM   26  C29 UNL     1       2.443   6.889   8.168  1.00  0.00     0.111 C 
BRANCH  26  27
HETATM   27  C30 UNL     1       2.169   8.362   8.027  1.00  0.00     0.139 C 
HETATM   28  O2  UNL     1       1.128   8.961   8.221  1.00  0.00    -0.650 OA
BRANCH  27  29
HETATM   29  O3  UNL     1       3.260   9.031   7.601  1.00  0.00    -0.776 OA
HETATM   30  H48 UNL     1       2.954   9.959   7.522  1.00  0.00     0.167 HD
ENDBRANCH  27  29
ENDBRANCH  26  27
ENDBRANCH  25  26
ENDBRANCH  16  25
BRANCH   1  31
HETATM   31  C2  UNL     1       5.314   8.506  10.932  1.00  0.00    -0.061 C 
HETATM   32  C1  UNL     1       5.986   9.602  10.524  1.00  0.00     0.017 C 
BRANCH  31  33
HETATM   33  C3  UNL     1       6.002   7.230  11.363  1.00  0.00     0.198 C 
BRANCH  33  34
HETATM   34  O1  UNL     1       7.072   6.896  10.485  1.00  0.00    -0.397 OA
HETATM   35  H5  UNL     1       7.394   6.029  10.776  1.00  0.00     0.209 HD
ENDBRANCH  33  34
ENDBRANCH  31  33
ENDBRANCH   1  31
TORSDOF 11
ENDMDL
