MODEL 1
REMARK minimizedAffinity -7.08482885
REMARK CNNscore 0.392222196
REMARK CNNaffinity 5.98109102
REMARK  6 active torsions:
REMARK  status: ('A' for Active; 'I' for Inactive)
REMARK    1  A    between atoms: C3_3  and  C4_4 
REMARK    2  A    between atoms: C4_4  and  O2_6 
REMARK    3  A    between atoms: O2_6  and  C5_7 
REMARK    4  A    between atoms: C5_7  and  C6_8 
REMARK    5  A    between atoms: C6_8  and  C7_9 
REMARK    6  A    between atoms: C13_15  and  C14_16 
ROOT
HETATM    1  C1  UNL     1      -8.859  -6.087  -3.461  1.00  0.00     0.069 C 
HETATM    2  C2  UNL     1      -9.291  -5.157  -4.566  1.00  0.00     0.018 A 
HETATM    3  C3  UNL     1      -9.992  -5.533  -5.661  1.00  0.00     0.052 A 
HETATM    4  C13 UNL     1     -10.350  -4.543  -6.766  1.00  0.00     0.104 A 
HETATM    5  C23 UNL     1      -9.789  -3.149  -6.511  1.00  0.00     0.024 A 
HETATM    6  C24 UNL     1      -9.123  -2.852  -5.375  1.00  0.00     0.020 A 
HETATM    7  C25 UNL     1      -8.623  -1.466  -5.056  1.00  0.00     0.058 C 
HETATM    8  C26 UNL     1      -9.373  -0.397  -5.841  1.00  0.00     0.014 C 
HETATM    9  C27 UNL     1      -9.392  -0.729  -7.323  1.00  0.00     0.084 C 
HETATM   10  C28 UNL     1      -9.939  -2.117  -7.575  1.00  0.00     0.158 C 
HETATM   11  O5  UNL     1     -10.432  -2.411  -8.663  1.00  0.00    -0.293 OA
HETATM   12  N1  UNL     1      -8.888  -3.836  -4.433  1.00  0.00    -0.362 N 
HETATM   13  H24 UNL     1      -8.440  -3.565  -3.563  1.00  0.00     0.165 HD
ENDROOT
BRANCH   4  14
HETATM   14  C14 UNL     1     -11.848  -4.527  -7.029  1.00  0.00     0.029 A 
HETATM   15  C15 UNL     1     -12.393  -4.997  -8.162  1.00  0.00     0.154 A 
HETATM   16  O3  UNL     1     -13.725  -5.036  -8.485  1.00  0.00    -0.321 OA
HETATM   17  C16 UNL     1     -14.615  -4.545  -7.567  1.00  0.00     0.089 A 
HETATM   18  C17 UNL     1     -15.969  -4.592  -7.901  1.00  0.00     0.040 A 
HETATM   19  C21 UNL     1     -14.216  -4.017  -6.342  1.00  0.00     0.050 A 
HETATM   20  C18 UNL     1     -16.922  -4.108  -7.002  1.00  0.00     0.026 A 
HETATM   21  C19 UNL     1     -16.516  -3.579  -5.775  1.00  0.00     0.035 A 
HETATM   22 CL1  UNL     1     -17.695  -2.986  -4.674  1.00  0.00    -0.084 Cl
HETATM   23  C20 UNL     1     -15.166  -3.529  -5.437  1.00  0.00     0.042 A 
HETATM   24  C22 UNL     1     -12.781  -3.977  -6.014  1.00  0.00     0.194 A 
HETATM   25  O4  UNL     1     -12.402  -3.507  -4.948  1.00  0.00    -0.287 OA
ENDBRANCH   4  14
BRANCH   3  26
HETATM   26  C4  UNL     1     -10.441  -6.920  -5.902  1.00  0.00     0.292 C 
HETATM   27  O1  UNL     1     -11.352  -7.446  -5.279  1.00  0.00    -0.259 OA
BRANCH  26  28
HETATM   28  O2  UNL     1      -9.647  -7.521  -6.820  1.00  0.00    -0.317 OA
BRANCH  28  29
HETATM   29  C5  UNL     1      -8.440  -8.109  -6.306  1.00  0.00     0.183 C 
BRANCH  29  30
HETATM   30  C6  UNL     1      -8.707  -9.527  -5.804  1.00  0.00     0.065 C 
BRANCH  30  31
HETATM   31  C7  UNL     1      -7.717  -9.943  -4.749  1.00  0.00    -0.056 A 
HETATM   32  C8  UNL     1      -7.462  -9.119  -3.646  1.00  0.00     0.007 A 
HETATM   33  C9  UNL     1      -6.561  -9.518  -2.658  1.00  0.00     0.001 A 
HETATM   34  C10 UNL     1      -5.911 -10.746  -2.762  1.00  0.00     0.000 A 
HETATM   35  C11 UNL     1      -6.160 -11.576  -3.854  1.00  0.00     0.001 A 
HETATM   36  C12 UNL     1      -7.060 -11.177  -4.843  1.00  0.00     0.007 A 
ENDBRANCH  30  31
ENDBRANCH  29  30
ENDBRANCH  28  29
ENDBRANCH  26  28
ENDBRANCH   3  26
TORSDOF 6
ENDMDL
