MODEL 1
REMARK minimizedAffinity -6.33153296
REMARK CNNscore 0.343978673
REMARK CNNaffinity 6.47227859
REMARK  9 active torsions:
REMARK  status: ('A' for Active; 'I' for Inactive)
REMARK    1  A    between atoms: C2_2  and  O1_3 
REMARK    2  A    between atoms: O1_3  and  C3_4 
REMARK    3  A    between atoms: C14_15  and  O2_16 
REMARK    4  A    between atoms: O2_16  and  C15_17 
REMARK    5  A    between atoms: C21_24  and  O4_25 
REMARK    6  A    between atoms: O4_25  and  C22_26 
REMARK    7  A    between atoms: C24_29  and  O6_30 
REMARK    8  A    between atoms: C25_31  and  O7_32 
REMARK    9  A    between atoms: C26_33  and  O8_34 
ROOT
HETATM    1  C3  UNL     1      -5.295  19.038   8.069  1.00  0.00     0.260 C 
HETATM    2  C4  UNL     1      -4.350  18.900   9.275  1.00  0.00     0.065 C 
HETATM    3  C5  UNL     1      -2.881  18.861   8.837  1.00  0.00    -0.007 C 
HETATM    4  C6  UNL     1      -1.954  18.819  10.050  1.00  0.00     0.010 C 
HETATM    5  C7  UNL     1      -2.701  17.631   7.918  1.00  0.00     0.027 C 
HETATM    6  C8  UNL     1      -3.921  17.456   6.958  1.00  0.00     0.130 C 
HETATM    7  C9  UNL     1      -3.345  17.055   5.578  1.00  0.00     0.042 C 
HETATM    8  C10 UNL     1      -1.948  16.500   5.908  1.00  0.00    -0.029 C 
HETATM    9  C11 UNL     1      -2.191  15.069   6.518  1.00  0.00     0.016 C 
HETATM   10  C12 UNL     1      -0.912  16.295   4.752  1.00  0.00     0.006 C 
HETATM   11  C13 UNL     1      -1.254  16.887   3.383  1.00  0.00     0.039 C 
HETATM   12  C14 UNL     1      -0.396  16.193   2.306  1.00  0.00     0.138 C 
HETATM   13  C17 UNL     1       1.156  16.231   2.561  1.00  0.00     0.035 C 
HETATM   14  C18 UNL     1       2.001  15.124   1.816  1.00  0.00    -0.015 C 
HETATM   15  C19 UNL     1       1.703  13.694   2.347  1.00  0.00     0.018 C 
HETATM   16  C20 UNL     1       1.659  15.124   0.302  1.00  0.00     0.018 C 
HETATM   17  C21 UNL     1       3.540  15.424   1.982  1.00  0.00     0.133 C 
HETATM   18  C27 UNL     1       3.927  16.029   3.338  1.00  0.00     0.034 C 
HETATM   19  C28 UNL     1       2.909  15.772   4.429  1.00  0.00     0.013 C 
HETATM   20  C29 UNL     1       1.574  16.390   4.062  1.00  0.00    -0.025 A 
HETATM   21  C30 UNL     1       1.335  17.786   4.586  1.00  0.00     0.021 A 
HETATM   22  C31 UNL     1       0.525  16.643   5.169  1.00  0.00    -0.027 A 
HETATM   23  C32 UNL     1       0.815  16.347   6.637  1.00  0.00     0.011 C 
HETATM   24  C33 UNL     1      -0.150  17.062   7.612  1.00  0.00     0.011 C 
HETATM   25  C34 UNL     1      -1.463  17.554   6.965  1.00  0.00    -0.030 C 
HETATM   26  C35 UNL     1      -1.231  18.973   6.368  1.00  0.00     0.016 C 
HETATM   27  O9  UNL     1      -4.675  18.654   6.841  1.00  0.00    -0.356 OA
ENDROOT
BRANCH  17  28
HETATM   28  O4  UNL     1       3.970  16.324   0.941  1.00  0.00    -0.353 OA
BRANCH  28  29
HETATM   29  C22 UNL     1       5.011  15.820   0.095  1.00  0.00     0.291 C 
HETATM   30  O5  UNL     1       4.851  16.395  -1.215  1.00  0.00    -0.356 OA
HETATM   31  C23 UNL     1       3.864  15.720  -1.995  1.00  0.00     0.205 C 
HETATM   32  C24 UNL     1       4.332  14.301  -2.354  1.00  0.00     0.173 C 
HETATM   33  C25 UNL     1       5.373  13.800  -1.350  1.00  0.00     0.182 C 
HETATM   34  C26 UNL     1       5.015  14.269   0.056  1.00  0.00     0.204 C 
BRANCH  32  35
HETATM   35  O6  UNL     1       4.943  14.245  -3.655  1.00  0.00    -0.391 OA
HETATM   36  H39 UNL     1       4.336  14.666  -4.290  1.00  0.00     0.210 HD
ENDBRANCH  32  35
BRANCH  33  37
HETATM   37  O7  UNL     1       5.435  12.364  -1.372  1.00  0.00    -0.390 OA
HETATM   38  H41 UNL     1       5.719  12.132  -2.280  1.00  0.00     0.210 HD
ENDBRANCH  33  37
BRANCH  34  39
HETATM   39  O8  UNL     1       5.953  13.716   0.995  1.00  0.00    -0.388 OA
HETATM   40  H43 UNL     1       6.073  12.788   0.706  1.00  0.00     0.210 HD
ENDBRANCH  34  39
ENDBRANCH  28  29
ENDBRANCH  17  28
BRANCH  12  41
HETATM   41  O2  UNL     1      -0.866  14.830   2.199  1.00  0.00    -0.316 OA
BRANCH  41  42
HETATM   42  C15 UNL     1      -2.078  14.640   1.607  1.00  0.00     0.255 C 
HETATM   43  C16 UNL     1      -2.936  13.767   2.470  1.00  0.00     0.126 C 
HETATM   44  O3  UNL     1      -2.423  15.089   0.524  1.00  0.00    -0.266 OA
ENDBRANCH  41  42
ENDBRANCH  12  41
BRANCH   1  45
HETATM   45  O1  UNL     1      -6.468  18.269   8.333  1.00  0.00    -0.362 OA
BRANCH  45  46
HETATM   46  C2  UNL     1      -7.629  19.064   8.562  1.00  0.00     0.166 C 
HETATM   47  C1  UNL     1      -8.779  18.215   9.075  1.00  0.00     0.033 C 
ENDBRANCH  45  46
ENDBRANCH   1  45
TORSDOF 9
ENDMDL
