MODEL 1
REMARK minimizedAffinity -8.15594101
REMARK CNNscore 0.727880001
REMARK CNNaffinity 7.38803673
REMARK  12 active torsions:
REMARK  status: ('A' for Active; 'I' for Inactive)
REMARK    1  A    between atoms: C5_5  and  C6_6 
REMARK    2  A    between atoms: C6_6  and  C8_8 
REMARK    3  A    between atoms: C8_8  and  O1_9 
REMARK    4  A    between atoms: C13_15  and  O3_17 
REMARK    5  A    between atoms: C18_21  and  O4_23 
REMARK    6  A    between atoms: O4_23  and  C20_24 
REMARK    7  A    between atoms: C20_24  and  C21_26 
REMARK    8  A    between atoms: C21_26  and  C22_27 
REMARK    9  A    between atoms: C21_26  and  O6_29 
REMARK   10  A    between atoms: O6_29  and  C24_30 
REMARK   11  A    between atoms: C24_30  and  C25_32 
REMARK   12  A    between atoms: C25_32  and  C26_33 
ROOT
HETATM    1  C1  UNL     1      -3.011  50.604 -17.733  1.00  0.00     0.015 C 
HETATM    2  C2  UNL     1      -2.739  49.864 -18.822  1.00  0.00    -0.077 C 
HETATM    3  C3  UNL     1      -1.393  49.202 -19.001  1.00  0.00     0.034 C 
HETATM    4  C4  UNL     1      -0.995  49.078 -20.475  1.00  0.00     0.010 C 
HETATM    5  C5  UNL     1      -1.584  50.202 -21.354  1.00  0.00    -0.001 C 
HETATM    6  C9  UNL     1      -3.150  50.045 -21.371  1.00  0.00     0.037 C 
HETATM    7  C10 UNL     1      -3.737  49.690 -19.958  1.00  0.00     0.090 C 
HETATM    8  C11 UNL     1      -4.370  48.293 -19.819  1.00  0.00     0.138 C 
HETATM    9  O2  UNL     1      -3.684  47.278 -19.650  1.00  0.00    -0.297 OA
HETATM   10  C12 UNL     1      -5.898  48.170 -19.824  1.00  0.00     0.119 C 
HETATM   11  C13 UNL     1      -6.683  49.072 -20.806  1.00  0.00     0.087 C 
HETATM   12  C14 UNL     1      -8.119  48.531 -20.939  1.00  0.00     0.049 C 
HETATM   13  C15 UNL     1      -6.047  49.176 -22.239  1.00  0.00     0.156 C 
HETATM   14  C16 UNL     1      -5.928  50.604 -22.789  1.00  0.00     0.038 C 
HETATM   15  C17 UNL     1      -4.963  50.760 -23.967  1.00  0.00     0.043 C 
HETATM   16  C18 UNL     1      -3.778  49.765 -23.970  1.00  0.00     0.093 C 
HETATM   17  C19 UNL     1      -4.049  48.618 -24.981  1.00  0.00     0.049 C 
HETATM   18  C28 UNL     1      -3.621  49.114 -22.553  1.00  0.00     0.162 C 
HETATM   19  O8  UNL     1      -4.835  48.424 -22.266  1.00  0.00    -0.374 OA
ENDROOT
BRANCH  16  20
HETATM   20  O4  UNL     1      -2.527  50.402 -24.349  1.00  0.00    -0.306 OA
BRANCH  20  21
HETATM   21  C20 UNL     1      -2.511  51.735 -24.651  1.00  0.00     0.289 C 
HETATM   22  O5  UNL     1      -2.982  52.619 -23.943  1.00  0.00    -0.262 OA
BRANCH  21  23
HETATM   23  C21 UNL     1      -1.861  52.015 -26.017  1.00  0.00     0.231 C 
BRANCH  23  24
HETATM   24  C22 UNL     1      -2.889  51.899 -27.151  1.00  0.00     0.038 C 
HETATM   25  C23 UNL     1      -2.895  50.549 -27.852  1.00  0.00     0.008 C 
ENDBRANCH  23  24
BRANCH  23  26
HETATM   26  O6  UNL     1      -1.177  53.266 -26.143  1.00  0.00    -0.306 OA
BRANCH  26  27
HETATM   27  C24 UNL     1       0.118  53.250 -25.718  1.00  0.00     0.259 C 
HETATM   28  O7  UNL     1       0.756  54.238 -25.385  1.00  0.00    -0.265 OA
BRANCH  27  29
HETATM   29  C25 UNL     1       0.655  51.839 -25.742  1.00  0.00     0.111 C 
BRANCH  29  30
HETATM   30  C26 UNL     1       1.244  51.486 -27.104  1.00  0.00     0.005 C 
HETATM   31  C27 UNL     1       2.752  51.683 -27.124  1.00  0.00     0.005 C 
ENDBRANCH  29  30
ENDBRANCH  27  29
ENDBRANCH  26  27
ENDBRANCH  23  26
ENDBRANCH  21  23
ENDBRANCH  20  21
ENDBRANCH  16  20
BRANCH   5  32
HETATM   32  C6  UNL     1      -1.044  51.621 -20.936  1.00  0.00     0.010 C 
HETATM   33  C7  UNL     1      -0.034  51.499 -19.780  1.00  0.00     0.012 C 
BRANCH  32  34
HETATM   34  C8  UNL     1      -0.409  52.400 -22.103  1.00  0.00     0.168 C 
BRANCH  34  35
HETATM   35  O1  UNL     1       0.749  53.120 -21.696  1.00  0.00    -0.400 OA
HETATM   36  H14 UNL     1       0.479  53.729 -20.988  1.00  0.00     0.209 HD
ENDBRANCH  34  35
ENDBRANCH  32  34
ENDBRANCH   5  32
BRANCH  11  37
HETATM   37  O3  UNL     1      -6.821  50.371 -20.204  1.00  0.00    -0.387 OA
HETATM   38  H22 UNL     1      -7.382  50.289 -19.413  1.00  0.00     0.210 HD
ENDBRANCH  11  37
TORSDOF 12
ENDMDL
