MODEL 1
REMARK minimizedAffinity -10.3751211
REMARK CNNscore 0.706417859
REMARK CNNaffinity 7.07713699
REMARK  11 active torsions:
REMARK  status: ('A' for Active; 'I' for Inactive)
REMARK    1  A    between atoms: C3_4  and  O2_5 
REMARK    2  A    between atoms: O2_5  and  C4_6 
REMARK    3  A    between atoms: C7_9  and  C8_10 
REMARK    4  A    between atoms: N1_11  and  C9_13 
REMARK    5  A    between atoms: C9_13  and  C10_14 
REMARK    6  A    between atoms: C10_14  and  O3_15 
REMARK    7  A    between atoms: C16_21  and  C17_22 
REMARK    8  A    between atoms: C23_30  and  O6_31 
REMARK    9  A    between atoms: C27_35  and  O7_36 
REMARK   10  A    between atoms: C30_39  and  O8_40 
REMARK   11  A    between atoms: C31_41  and  O9_42 
ROOT
HETATM    1  C4  UNL     1       0.289   6.955  11.692  1.00  0.00     0.127 C 
HETATM    2  C5  UNL     1       0.111   5.971  12.844  1.00  0.00     0.033 C 
HETATM    3  C6  UNL     1       0.292   6.658  14.195  1.00  0.00     0.021 C 
HETATM    4  C7  UNL     1      -0.677   7.859  14.439  1.00  0.00     0.026 C 
HETATM    5  C11 UNL     1      -2.163   7.379  14.626  1.00  0.00     0.009 C 
HETATM    6  C12 UNL     1      -2.396   6.452  15.817  1.00  0.00     0.007 C 
HETATM    7  C13 UNL     1      -3.742   5.738  15.720  1.00  0.00     0.013 C 
HETATM    8  C14 UNL     1      -4.915   6.570  15.144  1.00  0.00    -0.005 C 
HETATM    9  C15 UNL     1      -6.166   6.205  15.995  1.00  0.00     0.019 C 
HETATM   10  C16 UNL     1      -5.195   6.313  13.624  1.00  0.00     0.028 C 
HETATM   11  C21 UNL     1      -6.026   7.531  13.173  1.00  0.00     0.013 C 
HETATM   12  C22 UNL     1      -5.778   8.626  14.215  1.00  0.00     0.040 C 
HETATM   13  C23 UNL     1      -4.647   8.113  15.128  1.00  0.00     0.070 C 
HETATM   14  C24 UNL     1      -3.180   8.554  14.728  1.00  0.00     0.026 C 
HETATM   15  C25 UNL     1      -3.060   9.472  13.502  1.00  0.00     0.011 C 
HETATM   16  C26 UNL     1      -1.633   9.965  13.276  1.00  0.00     0.039 C 
HETATM   17  C27 UNL     1      -0.576   8.849  13.223  1.00  0.00     0.073 C 
HETATM   18  C28 UNL     1      -0.711   8.110  11.857  1.00  0.00     0.071 C 
ENDROOT
BRANCH   1  19
HETATM   19  O2  UNL     1       1.593   7.547  11.649  1.00  0.00    -0.356 OA
BRANCH  19  20
HETATM   20  C3  UNL     1       2.464   7.022  10.646  1.00  0.00     0.263 C 
HETATM   21  O1  UNL     1       1.889   7.271   9.366  1.00  0.00    -0.354 OA
HETATM   22  C2  UNL     1       2.698   6.777   8.295  1.00  0.00     0.151 C 
HETATM   23  C1  UNL     1       2.030   7.214   6.994  1.00  0.00     0.042 C 
HETATM   24  C31 UNL     1       2.824   5.246   8.384  1.00  0.00     0.175 C 
HETATM   25  C30 UNL     1       3.352   4.849   9.771  1.00  0.00     0.154 C 
HETATM   26  C29 UNL     1       2.557   5.516  10.880  1.00  0.00     0.095 C 
BRANCH  24  27
HETATM   27  O9  UNL     1       3.728   4.727   7.407  1.00  0.00    -0.390 OA
HETATM   28  H47 UNL     1       3.323   4.862   6.533  1.00  0.00     0.210 HD
ENDBRANCH  24  27
BRANCH  25  29
HETATM   29  O8  UNL     1       4.730   5.233   9.885  1.00  0.00    -0.393 OA
HETATM   30  H45 UNL     1       5.150   4.890   9.065  1.00  0.00     0.210 HD
ENDBRANCH  25  29
ENDBRANCH  19  20
ENDBRANCH   1  19
BRANCH  17  31
HETATM   31  O7  UNL     1       0.701   9.513  13.236  1.00  0.00    -0.389 OA
HETATM   32  H39 UNL     1       1.348   8.930  12.785  1.00  0.00     0.210 HD
ENDBRANCH  17  31
BRANCH   4  33
HETATM   33  C8  UNL     1      -0.163   8.489  15.743  1.00  0.00     0.068 C 
HETATM   34  N1  UNL     1      -0.090   9.764  15.925  1.00  0.00    -0.399 N 
ATOM     35  H1  UNL     1      -0.407  10.440  15.230  1.00  0.00     0.158 HD
BRANCH  34  36
HETATM   36  C9  UNL     1       0.485  10.164  17.214  1.00  0.00     0.144 C 
BRANCH  36  37
HETATM   37  C10 UNL     1       1.977   9.821  17.181  1.00  0.00     0.183 C 
BRANCH  37  38
HETATM   38  O3  UNL     1       2.466   9.707  18.517  1.00  0.00    -0.399 OA
HETATM   39  H16 UNL     1       1.873   9.055  18.949  1.00  0.00     0.209 HD
ENDBRANCH  37  38
ENDBRANCH  36  37
ENDBRANCH  34  36
ENDBRANCH   4  33
BRANCH  13  40
HETATM   40  O6  UNL     1      -4.882   8.630  16.444  1.00  0.00    -0.389 OA
HETATM   41  H33 UNL     1      -4.776   9.599  16.412  1.00  0.00     0.210 HD
ENDBRANCH  13  40
BRANCH  10  42
HETATM   42  C17 UNL     1      -5.743   4.976  13.206  1.00  0.00    -0.045 A 
HETATM   43  C18 UNL     1      -7.014   4.596  13.333  1.00  0.00     0.087 A 
HETATM   44  C19 UNL     1      -7.115   3.225  12.839  1.00  0.00     0.283 A 
HETATM   45  O4  UNL     1      -8.140   2.568  12.817  1.00  0.00    -0.260 OA
HETATM   46  O5  UNL     1      -5.889   2.813  12.425  1.00  0.00    -0.314 OA
HETATM   47  C20 UNL     1      -4.940   3.858  12.650  1.00  0.00     0.213 A 
ENDBRANCH  10  42
TORSDOF 11
ENDMDL
