MODEL 1
REMARK minimizedAffinity -9.05766582
REMARK CNNscore 0.661489069
REMARK CNNaffinity 6.19768524
REMARK  7 active torsions:
REMARK  status: ('A' for Active; 'I' for Inactive)
REMARK    1  A    between atoms: C4_4  and  C5_5 
REMARK    2  A    between atoms: C5_5  and  C6_6 
REMARK    3  A    between atoms: C6_6  and  C7_7 
REMARK    4  A    between atoms: C7_7  and  C9_9 
REMARK    5  A    between atoms: C18_18  and  O1_19 
REMARK    6  A    between atoms: O1_19  and  C19_20 
REMARK    7  A    between atoms: C19_20  and  C20_22 
ROOT
HETATM    1  C9  UNL     1      -9.521  48.229 -29.314  1.00  0.00    -0.002 C 
HETATM    2  C10 UNL     1      -9.994  47.766 -30.718  1.00  0.00     0.006 C 
HETATM    3  C11 UNL     1     -11.383  47.137 -30.555  1.00  0.00     0.010 C 
HETATM    4  C12 UNL     1     -11.774  47.463 -29.119  1.00  0.00     0.023 C 
HETATM    5  C13 UNL     1     -12.905  46.728 -28.441  1.00  0.00    -0.070 C 
HETATM    6  C14 UNL     1     -13.766  45.931 -29.092  1.00  0.00     0.004 C 
HETATM    7  C15 UNL     1     -14.968  45.438 -28.472  1.00  0.00     0.004 C 
HETATM    8  C16 UNL     1     -15.193  45.530 -27.150  1.00  0.00    -0.069 C 
HETATM    9  C17 UNL     1     -16.458  44.969 -26.543  1.00  0.00     0.067 C 
HETATM   10  C18 UNL     1     -17.103  45.922 -25.534  1.00  0.00     0.136 C 
HETATM   11  C26 UNL     1     -16.083  46.347 -24.477  1.00  0.00     0.034 C 
HETATM   12  C27 UNL     1     -14.873  47.016 -25.126  1.00  0.00     0.017 C 
HETATM   13  C28 UNL     1     -14.156  46.148 -26.202  1.00  0.00    -0.013 C 
HETATM   14  C29 UNL     1     -13.444  44.958 -25.511  1.00  0.00     0.021 C 
HETATM   15  C30 UNL     1     -13.125  47.094 -26.973  1.00  0.00     0.027 C 
HETATM   16  C31 UNL     1     -11.793  47.292 -26.197  1.00  0.00     0.011 C 
HETATM   17  C32 UNL     1     -10.700  48.041 -26.974  1.00  0.00     0.011 C 
HETATM   18  C33 UNL     1     -10.430  47.396 -28.350  1.00  0.00    -0.033 C 
HETATM   19  C34 UNL     1      -9.905  45.948 -28.195  1.00  0.00     0.016 C 
ENDROOT
BRANCH  10  20
HETATM   20  O1  UNL     1     -18.188  45.217 -24.899  1.00  0.00    -0.312 OA
BRANCH  20  21
HETATM   21  C19 UNL     1     -19.102  45.989 -24.257  1.00  0.00     0.293 C 
HETATM   22  O2  UNL     1     -19.802  46.847 -24.769  1.00  0.00    -0.259 OA
BRANCH  21  23
HETATM   23  C20 UNL     1     -19.151  45.647 -22.809  1.00  0.00     0.039 A 
HETATM   24  C21 UNL     1     -19.706  44.411 -22.441  1.00  0.00     0.017 A 
HETATM   25  C22 UNL     1     -19.775  44.042 -21.097  1.00  0.00     0.001 A 
HETATM   26  C23 UNL     1     -19.294  44.904 -20.112  1.00  0.00     0.000 A 
HETATM   27  C24 UNL     1     -18.743  46.135 -20.468  1.00  0.00     0.001 A 
HETATM   28  C25 UNL     1     -18.670  46.508 -21.813  1.00  0.00     0.017 A 
ENDBRANCH  21  23
ENDBRANCH  20  21
ENDBRANCH  10  20
BRANCH   1  29
HETATM   29  C7  UNL     1      -7.971  48.171 -29.154  1.00  0.00    -0.014 C 
HETATM   30  C8  UNL     1      -7.263  47.915 -30.493  1.00  0.00     0.010 C 
BRANCH  29  31
HETATM   31  C6  UNL     1      -7.513  47.056 -28.168  1.00  0.00     0.008 C 
BRANCH  31  32
HETATM   32  C5  UNL     1      -6.827  47.565 -26.894  1.00  0.00     0.028 C 
BRANCH  32  33
HETATM   33  C4  UNL     1      -5.397  47.947 -27.172  1.00  0.00    -0.025 C 
HETATM   34  C2  UNL     1      -4.454  48.337 -26.292  1.00  0.00    -0.091 C 
HETATM   35  C1  UNL     1      -3.058  48.660 -26.760  1.00  0.00     0.042 C 
HETATM   36  C3  UNL     1      -4.657  48.499 -24.811  1.00  0.00     0.042 C 
ENDBRANCH  32  33
ENDBRANCH  31  32
ENDBRANCH  29  31
ENDBRANCH   1  29
TORSDOF 7
ENDMDL
