MODEL 1
REMARK minimizedAffinity -10.0453005
REMARK  7 active torsions:
REMARK  status: ('A' for Active; 'I' for Inactive)
REMARK    1  A    between atoms: C19_20  and  O2_21 
REMARK    2  A    between atoms: O2_21  and  C20_22 
REMARK    3  A    between atoms: C20_22  and  C21_24 
REMARK    4  A    between atoms: C21_24  and  C22_25 
REMARK    5  A    between atoms: C22_25  and  C23_26 
REMARK       I    between atoms: C23_26  and  N1_28 
REMARK    6  A    between atoms: N1_28  and  C24_29 
REMARK    7  A    between atoms: C24_29  and  C25_30 
ROOT
HETATM    1  C1  UNL     1      -3.530   6.709  15.597  1.00  0.00     0.018 C 
HETATM    2  C2  UNL     1      -4.051   6.484  14.155  1.00  0.00    -0.013 C 
HETATM    3  C3  UNL     1      -3.575   5.116  13.647  1.00  0.00     0.012 C 
HETATM    4  C4  UNL     1      -2.052   5.090  13.415  1.00  0.00     0.007 C 
HETATM    5  C5  UNL     1      -1.541   6.246  12.515  1.00  0.00     0.002 C 
HETATM    6  C6  UNL     1      -2.074   7.631  12.996  1.00  0.00    -0.004 C 
HETATM    7  C7  UNL     1      -1.660   8.730  12.009  1.00  0.00     0.010 C 
HETATM    8  C8  UNL     1      -0.147   8.782  11.847  1.00  0.00     0.035 C 
HETATM    9  C9  UNL     1       0.423   7.446  11.435  1.00  0.00    -0.068 C 
HETATM   10  C10 UNL     1       1.257   7.377  10.382  1.00  0.00     0.053 C 
HETATM   11  C11 UNL     1       1.937   6.117  10.005  1.00  0.00     0.149 C 
HETATM   12  O1  UNL     1       2.658   6.095   9.011  1.00  0.00    -0.293 OA
HETATM   13  C12 UNL     1       1.779   4.928  10.915  1.00  0.00     0.084 C 
HETATM   14  C13 UNL     1       0.392   4.914  11.539  1.00  0.00     0.022 C 
HETATM   15  C14 UNL     1       0.019   6.232  12.283  1.00  0.00    -0.016 C 
HETATM   16  C15 UNL     1       0.803   6.293  13.614  1.00  0.00     0.020 C 
HETATM   17  C16 UNL     1      -3.598   7.548  13.135  1.00  0.00     0.001 C 
HETATM   18  C17 UNL     1      -4.369   8.796  13.553  1.00  0.00     0.008 C 
HETATM   19  C18 UNL     1      -5.717   8.250  14.054  1.00  0.00     0.034 C 
HETATM   20  C19 UNL     1      -5.580   6.711  14.094  1.00  0.00     0.140 C 
ENDROOT
BRANCH  20  21
HETATM   21  O2  UNL     1      -6.281   6.214  15.237  1.00  0.00    -0.315 OA
BRANCH  21  22
HETATM   22  C20 UNL     1      -7.295   5.343  14.991  1.00  0.00     0.259 C 
HETATM   23  O3  UNL     1      -7.413   4.234  15.498  1.00  0.00    -0.265 OA
BRANCH  22  24
HETATM   24  C21 UNL     1      -8.339   5.950  14.081  1.00  0.00     0.120 C 
BRANCH  24  25
HETATM   25  C22 UNL     1      -8.268   5.473  12.634  1.00  0.00     0.112 C 
BRANCH  25  26
HETATM   26  C23 UNL     1      -7.915   4.002  12.534  1.00  0.00     0.218 C 
HETATM   27  O4  UNL     1      -8.708   3.100  12.773  1.00  0.00    -0.274 OA
HETATM   28  N1  UNL     1      -6.612   3.788  12.143  1.00  0.00    -0.357 N 
HETATM   29  H32 UNL     1      -6.066   4.572  11.813  1.00  0.00     0.162 HD
BRANCH  28  30
HETATM   30  C24 UNL     1      -6.111   2.457  11.874  1.00  0.00     0.162 C 
BRANCH  30  31
HETATM   31  C25 UNL     1      -4.695   2.506  11.381  1.00  0.00    -0.025 A 
HETATM   32  C26 UNL     1      -4.234   3.567  10.595  1.00  0.00     0.011 A 
HETATM   33  C27 UNL     1      -2.907   3.591  10.175  1.00  0.00     0.018 A 
HETATM   34  C28 UNL     1      -2.079   2.551  10.561  1.00  0.00     0.087 A 
HETATM   35  N2  UNL     1      -2.485   1.510  11.321  1.00  0.00    -0.375 N 
HETATM   36  C29 UNL     1      -3.779   1.513  11.712  1.00  0.00     0.096 A 
ATOM     37  H2  UNL     1      -1.847   0.761  11.587  1.00  0.00     0.164 HD
ENDBRANCH  30  31
ENDBRANCH  28  30
ENDBRANCH  25  26
ENDBRANCH  24  25
ENDBRANCH  22  24
ENDBRANCH  21  22
ENDBRANCH  20  21
TORSDOF 7
ENDMDL
