MODEL 1
REMARK minimizedAffinity -7.259027
REMARK CNNscore 0.715640366
REMARK CNNaffinity 7.33584595
REMARK  13 active torsions:
REMARK  status: ('A' for Active; 'I' for Inactive)
REMARK    1  A    between atoms: O1_2  and  C2_3 
REMARK    2  A    between atoms: C2_3  and  C3_5 
REMARK    3  A    between atoms: C3_5  and  C4_6 
REMARK    4  A    between atoms: C3_5  and  N3_13 
REMARK    5  A    between atoms: C4_6  and  C5_7 
REMARK       I    between atoms: N3_13  and  C8_14 
REMARK    6  A    between atoms: C8_14  and  C9_16 
REMARK    7  A    between atoms: C9_16  and  O4_17 
REMARK    8  A    between atoms: O4_17  and  N4_18 
REMARK    9  A    between atoms: C17_27  and  O5_28 
REMARK   10  A    between atoms: C24_35  and  O6_36 
REMARK   11  A    between atoms: C24_35  and  C25_37 
REMARK   12  A    between atoms: C25_37  and  C26_39 
REMARK   13  A    between atoms: C26_39  and  O8_40 
ROOT
HETATM    1  N4  UNL     1       1.077  53.021 -18.788  1.00  0.00    -0.271 N 
ATOM      2  H4  UNL     1       1.899  53.592 -18.988  1.00  0.00     0.194 HD
HETATM    3  C10 UNL     1       0.897  52.359 -17.682  1.00  0.00     0.032 C 
HETATM    4  C11 UNL     1       1.992  52.395 -16.677  1.00  0.00     0.030 C 
HETATM    5  C12 UNL     1       1.934  51.694 -15.531  1.00  0.00    -0.069 C 
HETATM    6  C13 UNL     1       3.163  51.604 -14.658  1.00  0.00     0.035 C 
HETATM    7  C14 UNL     1       2.873  51.729 -13.162  1.00  0.00     0.010 C 
HETATM    8  C15 UNL     1       1.763  50.751 -12.726  1.00  0.00    -0.002 C 
HETATM    9  C16 UNL     1       0.465  51.037 -13.526  1.00  0.00     0.031 C 
HETATM   10  C17 UNL     1      -0.129  52.405 -13.088  1.00  0.00     0.124 C 
HETATM   11  C18 UNL     1       0.172  52.827 -11.640  1.00  0.00     0.045 C 
HETATM   12  C19 UNL     1       0.431  51.677 -10.629  1.00  0.00     0.001 C 
HETATM   13  C20 UNL     1      -0.918  50.985 -10.335  1.00  0.00     0.019 C 
HETATM   14  C21 UNL     1       1.459  50.648 -11.203  1.00  0.00     0.002 C 
HETATM   15  C22 UNL     1       2.703  50.708 -10.303  1.00  0.00     0.009 C 
HETATM   16  C23 UNL     1       2.597  52.018  -9.545  1.00  0.00     0.047 C 
HETATM   17  C24 UNL     1       1.099  52.216  -9.312  1.00  0.00     0.128 C 
HETATM   18  C27 UNL     1       0.701  50.903 -15.093  1.00  0.00    -0.014 C 
HETATM   19  C28 UNL     1       0.940  49.409 -15.443  1.00  0.00     0.020 C 
HETATM   20  C29 UNL     1      -0.544  51.386 -15.891  1.00  0.00     0.020 C 
HETATM   21  C30 UNL     1      -0.312  51.491 -17.393  1.00  0.00     0.060 C 
ENDROOT
BRANCH   1  22
HETATM   22  O4  UNL     1       0.001  52.853 -19.670  1.00  0.00    -0.271 OA
BRANCH  22  23
HETATM   23  C9  UNL     1       0.434  52.094 -20.793  1.00  0.00     0.303 C 
BRANCH  23  24
HETATM   24  C8  UNL     1      -0.801  51.536 -21.481  1.00  0.00     0.244 C 
HETATM   25  N3  UNL     1      -1.820  51.217 -20.615  1.00  0.00    -0.345 N 
HETATM   26  H10 UNL     1      -1.633  51.270 -19.617  1.00  0.00     0.163 HD
HETATM   27  O3  UNL     1      -0.887  51.408 -22.702  1.00  0.00    -0.271 OA
BRANCH  25  28
HETATM   28  C3  UNL     1      -3.132  50.704 -21.030  1.00  0.00     0.190 C 
BRANCH  28  29
HETATM   29  C2  UNL     1      -3.130  49.166 -21.060  1.00  0.00     0.281 C 
HETATM   30  O2  UNL     1      -3.928  48.463 -20.448  1.00  0.00    -0.263 OA
BRANCH  29  31
HETATM   31  O1  UNL     1      -2.151  48.682 -21.882  1.00  0.00    -0.325 OA
HETATM   32  C1  UNL     1      -1.774  47.330 -21.611  1.00  0.00     0.213 C 
ENDBRANCH  29  31
ENDBRANCH  28  29
BRANCH  28  33
HETATM   33  C4  UNL     1      -3.539  51.225 -22.423  1.00  0.00     0.093 C 
BRANCH  33  34
HETATM   34  C5  UNL     1      -4.883  50.748 -22.862  1.00  0.00     0.028 A 
HETATM   35  C6  UNL     1      -5.350  50.321 -24.088  1.00  0.00     0.114 A 
HETATM   36  N1  UNL     1      -6.675  49.985 -24.017  1.00  0.00    -0.360 N 
HETATM   37  C7  UNL     1      -7.020  50.189 -22.766  1.00  0.00     0.180 A 
ATOM     38  H1  UNL     1      -7.269  49.647 -24.774  1.00  0.00     0.166 HD
HETATM   39  N2  UNL     1      -5.969  50.652 -22.027  1.00  0.00    -0.354 N 
HETATM   40  H9  UNL     1      -5.981  50.843 -21.027  1.00  0.00     0.166 HD
ENDBRANCH  33  34
ENDBRANCH  28  33
ENDBRANCH  25  28
ENDBRANCH  23  24
ENDBRANCH  22  23
ENDBRANCH   1  22
BRANCH  10  41
HETATM   41  O5  UNL     1      -1.543  52.418 -13.294  1.00  0.00    -0.395 OA
HETATM   42  H21 UNL     1      -1.967  51.814 -12.665  1.00  0.00     0.210 HD
ENDBRANCH  10  41
BRANCH  17  43
HETATM   43  O6  UNL     1       0.879  53.633  -9.186  1.00  0.00    -0.381 OA
HETATM   44  H32 UNL     1       0.300  53.770  -8.403  1.00  0.00     0.211 HD
ENDBRANCH  17  43
BRANCH  17  45
HETATM   45  C25 UNL     1       0.608  51.609  -7.972  1.00  0.00     0.184 C 
HETATM   46  O7  UNL     1       1.007  50.488  -7.620  1.00  0.00    -0.292 OA
BRANCH  45  47
HETATM   47  C26 UNL     1      -0.379  52.369  -7.097  1.00  0.00     0.245 C 
BRANCH  47  48
HETATM   48  O8  UNL     1      -1.487  51.556  -6.738  1.00  0.00    -0.393 OA
HETATM   49  H35 UNL     1      -1.498  50.799  -7.362  1.00  0.00     0.209 HD
ENDBRANCH  47  48
ENDBRANCH  45  47
ENDBRANCH  17  45
TORSDOF 13
ENDMDL
