MODEL 1
REMARK minimizedAffinity -7.60144806
REMARK CNNscore 0.69212538
REMARK CNNaffinity 7.13714409
REMARK  10 active torsions:
REMARK  status: ('A' for Active; 'I' for Inactive)
REMARK    1  A    between atoms: C19_20  and  O2_21 
REMARK    2  A    between atoms: C19_20  and  C20_22 
REMARK    3  A    between atoms: C20_22  and  C21_24 
REMARK    4  A    between atoms: C21_24  and  O4_25 
REMARK    5  A    between atoms: O4_25  and  C22_26 
REMARK    6  A    between atoms: C22_26  and  C23_28 
REMARK    7  A    between atoms: C23_28  and  C24_29 
REMARK    8  A    between atoms: C24_29  and  C25_30 
REMARK       I    between atoms: C25_30  and  N1_32 
REMARK    9  A    between atoms: N1_32  and  C26_33 
REMARK   10  A    between atoms: C26_33  and  C27_34 
ROOT
HETATM    1  C1  UNL     1      -7.024   7.071  13.818  1.00  0.00     0.020 C 
HETATM    2  C2  UNL     1      -8.169   6.119  14.231  1.00  0.00    -0.016 C 
HETATM    3  C3  UNL     1      -7.578   4.972  15.105  1.00  0.00     0.022 C 
HETATM    4  C4  UNL     1      -6.762   3.959  14.313  1.00  0.00     0.084 C 
HETATM    5  C5  UNL     1      -7.589   3.385  13.195  1.00  0.00     0.149 C 
HETATM    6  O1  UNL     1      -7.458   2.231  12.802  1.00  0.00    -0.293 OA
HETATM    7  C6  UNL     1      -8.542   4.288  12.509  1.00  0.00     0.053 C 
HETATM    8  C7  UNL     1      -8.786   5.534  12.953  1.00  0.00    -0.068 C 
HETATM    9  C8  UNL     1      -9.694   6.440  12.157  1.00  0.00     0.035 C 
HETATM   10  C9  UNL     1     -10.764   7.083  13.032  1.00  0.00     0.010 C 
HETATM   11  C10 UNL     1     -10.134   7.841  14.208  1.00  0.00    -0.004 C 
HETATM   12  C11 UNL     1      -9.276   6.867  15.070  1.00  0.00     0.002 C 
HETATM   13  C12 UNL     1      -8.736   7.559  16.348  1.00  0.00     0.007 C 
HETATM   14  C13 UNL     1      -9.805   8.338  17.143  1.00  0.00     0.013 C 
HETATM   15  C14 UNL     1     -10.607   9.311  16.257  1.00  0.00    -0.002 C 
HETATM   16  C15 UNL     1      -9.679  10.457  15.769  1.00  0.00     0.019 C 
HETATM   17  C16 UNL     1     -11.209   8.482  15.099  1.00  0.00     0.002 C 
HETATM   18  C17 UNL     1     -12.222   9.427  14.458  1.00  0.00     0.009 C 
HETATM   19  C18 UNL     1     -12.723  10.322  15.613  1.00  0.00     0.047 C 
HETATM   20  C19 UNL     1     -11.915   9.904  16.861  1.00  0.00     0.128 C 
ENDROOT
BRANCH  20  21
HETATM   21  O2  UNL     1     -12.689   8.884  17.517  1.00  0.00    -0.381 OA
HETATM   22  H27 UNL     1     -12.170   8.587  18.288  1.00  0.00     0.211 HD
ENDBRANCH  20  21
BRANCH  20  23
HETATM   23  C20 UNL     1     -11.687  10.970  17.947  1.00  0.00     0.185 C 
HETATM   24  O3  UNL     1     -11.708  12.170  17.640  1.00  0.00    -0.292 OA
BRANCH  23  25
HETATM   25  C21 UNL     1     -11.352  10.514  19.364  1.00  0.00     0.260 C 
BRANCH  25  26
HETATM   26  O4  UNL     1     -12.518  10.305  20.165  1.00  0.00    -0.314 OA
BRANCH  26  27
HETATM   27  C22 UNL     1     -12.296   9.536  21.266  1.00  0.00     0.259 C 
HETATM   28  O5  UNL     1     -11.577   9.849  22.208  1.00  0.00    -0.265 OA
BRANCH  27  29
HETATM   29  C23 UNL     1     -13.076   8.256  21.182  1.00  0.00     0.120 C 
BRANCH  29  30
HETATM   30  C24 UNL     1     -12.887   7.431  22.444  1.00  0.00     0.112 C 
BRANCH  30  31
HETATM   31  C25 UNL     1     -13.831   6.248  22.477  1.00  0.00     0.218 C 
HETATM   32  O6  UNL     1     -14.558   5.937  21.540  1.00  0.00    -0.274 OA
HETATM   33  N1  UNL     1     -13.782   5.556  23.664  1.00  0.00    -0.357 N 
HETATM   34  H34 UNL     1     -13.101   5.813  24.365  1.00  0.00     0.162 HD
BRANCH  33  35
HETATM   35  C26 UNL     1     -14.584   4.372  23.893  1.00  0.00     0.162 C 
BRANCH  35  36
HETATM   36  C27 UNL     1     -13.718   3.191  24.210  1.00  0.00    -0.025 A 
HETATM   37  C28 UNL     1     -12.325   3.305  24.270  1.00  0.00     0.011 A 
HETATM   38  C29 UNL     1     -11.548   2.193  24.579  1.00  0.00     0.018 A 
HETATM   39  C30 UNL     1     -12.196   0.996  24.829  1.00  0.00     0.087 A 
HETATM   40  N2  UNL     1     -13.538   0.845  24.790  1.00  0.00    -0.375 N 
HETATM   41  C31 UNL     1     -14.264   1.942  24.477  1.00  0.00     0.096 A 
ATOM     42  H2  UNL     1     -13.981  -0.051  24.988  1.00  0.00     0.164 HD
ENDBRANCH  35  36
ENDBRANCH  33  35
ENDBRANCH  30  31
ENDBRANCH  29  30
ENDBRANCH  27  29
ENDBRANCH  26  27
ENDBRANCH  25  26
ENDBRANCH  23  25
ENDBRANCH  20  23
TORSDOF 10
ENDMDL
