MODEL 1
REMARK minimizedAffinity -9.77050686
REMARK  8 active torsions:
REMARK  status: ('A' for Active; 'I' for Inactive)
REMARK    1  A    between atoms: C4_4  and  C5_5 
REMARK    2  A    between atoms: C5_5  and  C6_6 
REMARK    3  A    between atoms: C6_6  and  C7_7 
REMARK    4  A    between atoms: C7_7  and  C9_9 
REMARK    5  A    between atoms: C25_26  and  C27_28 
REMARK    6  A    between atoms: C27_28  and  O3_30 
REMARK    7  A    between atoms: C28_31  and  O4_32 
REMARK    8  A    between atoms: C30_34  and  O5_35 
ROOT
HETATM    1  C9  UNL     1      -2.984   8.396  14.891  1.00  0.00    -0.002 C 
HETATM    2  C10 UNL     1      -2.208   7.794  16.100  1.00  0.00     0.007 C 
HETATM    3  C11 UNL     1      -0.771   7.503  15.630  1.00  0.00     0.015 C 
HETATM    4  C12 UNL     1      -0.629   8.230  14.280  1.00  0.00    -0.005 C 
HETATM    5  C13 UNL     1      -0.278   9.718  14.599  1.00  0.00     0.021 C 
HETATM    6  C14 UNL     1       0.432   7.798  13.273  1.00  0.00    -0.000 C 
HETATM    7  C15 UNL     1       0.231   7.926  11.931  1.00  0.00    -0.058 C 
HETATM    8  C16 UNL     1      -1.095   8.472  11.396  1.00  0.00     0.036 C 
HETATM    9  C17 UNL     1      -2.186   8.844  12.419  1.00  0.00     0.015 C 
HETATM   10  C18 UNL     1      -2.076   7.993  13.689  1.00  0.00    -0.028 C 
HETATM   11  C19 UNL     1      -2.354   6.502  13.313  1.00  0.00     0.016 C 
HETATM   12  C20 UNL     1       1.296   7.477  10.868  1.00  0.00     0.011 C 
HETATM   13  C21 UNL     1       0.973   5.988  10.615  1.00  0.00     0.023 C 
HETATM   14  C22 UNL     1       2.696   7.745  11.524  1.00  0.00     0.029 C 
HETATM   15  C23 UNL     1       2.851   6.956  12.825  1.00  0.00     0.090 C 
HETATM   16  C24 UNL     1       1.741   7.281  13.798  1.00  0.00     0.157 C 
HETATM   17  O1  UNL     1       1.924   7.114  15.003  1.00  0.00    -0.293 OA
HETATM   18  C25 UNL     1       3.955   7.790  10.572  1.00  0.00     0.072 C 
HETATM   19  C26 UNL     1       4.460   9.269  10.579  1.00  0.00     0.030 C 
HETATM   20  C28 UNL     1       3.664   7.434   9.098  1.00  0.00     0.139 C 
HETATM   21  C29 UNL     1       2.395   8.062   8.536  1.00  0.00     0.065 C 
HETATM   22  C30 UNL     1       1.254   8.308   9.539  1.00  0.00     0.133 C 
ENDROOT
BRANCH   1  23
HETATM   23  C7  UNL     1      -4.484   7.979  14.908  1.00  0.00    -0.014 C 
HETATM   24  C8  UNL     1      -5.199   8.455  13.630  1.00  0.00     0.010 C 
BRANCH  23  25
HETATM   25  C6  UNL     1      -4.746   6.469  15.113  1.00  0.00     0.008 C 
BRANCH  25  26
HETATM   26  C5  UNL     1      -5.974   5.915  14.382  1.00  0.00     0.028 C 
BRANCH  26  27
HETATM   27  C4  UNL     1      -5.585   4.860  13.383  1.00  0.00    -0.025 C 
HETATM   28  C2  UNL     1      -6.326   3.823  12.947  1.00  0.00    -0.091 C 
HETATM   29  C1  UNL     1      -7.705   3.478  13.442  1.00  0.00     0.042 C 
HETATM   30  C3  UNL     1      -5.799   2.893  11.884  1.00  0.00     0.042 C 
ENDBRANCH  26  27
ENDBRANCH  25  26
ENDBRANCH  23  25
ENDBRANCH   1  23
BRANCH  22  31
HETATM   31  O5  UNL     1       0.034   8.150   8.809  1.00  0.00    -0.394 OA
HETATM   32  H46 UNL     1      -0.029   7.225   8.515  1.00  0.00     0.210 HD
ENDBRANCH  22  31
BRANCH  18  33
HETATM   33  C27 UNL     1       5.164   6.955  11.016  1.00  0.00     0.151 C 
HETATM   34  O2  UNL     1       6.195   6.792  10.374  1.00  0.00    -0.649 OA
BRANCH  33  35
HETATM   35  O3  UNL     1       5.036   6.339  12.205  1.00  0.00    -0.776 OA
HETATM   36  H40 UNL     1       5.871   5.834  12.301  1.00  0.00     0.167 HD
ENDBRANCH  33  35
ENDBRANCH  18  33
BRANCH  20  37
HETATM   37  O4  UNL     1       3.572   6.024   8.905  1.00  0.00    -0.394 OA
HETATM   38  H42 UNL     1       3.689   5.843   7.955  1.00  0.00     0.210 HD
ENDBRANCH  20  37
TORSDOF 8
ENDMDL
