MODEL 1
REMARK minimizedAffinity -6.75129461
REMARK CNNscore 0.747858226
REMARK CNNaffinity 6.91224861
REMARK  6 active torsions:
REMARK  status: ('A' for Active; 'I' for Inactive)
REMARK    1  A    between atoms: C2_2  and  C30_31 
REMARK    2  A    between atoms: C3_3  and  C4_4 
REMARK    3  A    between atoms: C4_4  and  C5_5 
REMARK    4  A    between atoms: C5_5  and  C6_6 
REMARK    5  A    between atoms: C6_6  and  C8_8 
REMARK    6  A    between atoms: C30_31  and  O2_32 
ROOT
HETATM    1  C8  UNL     1     -14.101 -11.956  27.306  1.00  0.00    -0.002 C 
HETATM    2  C9  UNL     1     -15.643 -12.073  27.427  1.00  0.00     0.007 C 
HETATM    3  C10 UNL     1     -16.111 -10.908  28.328  1.00  0.00     0.015 C 
HETATM    4  C11 UNL     1     -14.817 -10.324  28.937  1.00  0.00    -0.013 C 
HETATM    5  C12 UNL     1     -14.503 -11.205  30.190  1.00  0.00     0.021 C 
HETATM    6  C13 UNL     1     -14.821  -8.884  29.435  1.00  0.00    -0.070 C 
HETATM    7  C14 UNL     1     -15.928  -8.293  29.918  1.00  0.00    -0.022 C 
HETATM    8  C15 UNL     1     -15.957  -6.942  30.560  1.00  0.00     0.034 C 
HETATM    9  C16 UNL     1     -14.639  -6.135  30.481  1.00  0.00     0.013 C 
HETATM   10  C17 UNL     1     -14.628  -4.891  31.448  1.00  0.00     0.018 C 
HETATM   11  C18 UNL     1     -15.333  -5.117  32.803  1.00  0.00     0.023 C 
HETATM   12  C19 UNL     1     -15.332  -3.699  30.763  1.00  0.00     0.023 C 
HETATM   13  C20 UNL     1     -13.184  -4.455  31.715  1.00  0.00     0.135 C 
HETATM   14  O1  UNL     1     -12.853  -3.839  32.729  1.00  0.00    -0.297 OA
HETATM   15  C21 UNL     1     -12.182  -4.722  30.626  1.00  0.00     0.080 C 
HETATM   16  C22 UNL     1     -12.077  -6.202  30.302  1.00  0.00     0.017 C 
HETATM   17  C23 UNL     1     -13.360  -7.054  30.558  1.00  0.00    -0.031 C 
HETATM   18  C24 UNL     1     -13.236  -7.727  31.946  1.00  0.00     0.016 C 
HETATM   19  C25 UNL     1     -13.482  -8.142  29.410  1.00  0.00     0.024 C 
HETATM   20  C26 UNL     1     -12.256  -9.086  29.269  1.00  0.00     0.010 C 
HETATM   21  C27 UNL     1     -12.381 -10.213  28.213  1.00  0.00     0.011 C 
HETATM   22  C28 UNL     1     -13.823 -10.481  27.736  1.00  0.00    -0.029 C 
HETATM   23  C29 UNL     1     -14.132  -9.531  26.540  1.00  0.00     0.016 C 
ENDROOT
BRANCH   1  24
HETATM   24  C6  UNL     1     -13.456 -12.480  25.987  1.00  0.00    -0.014 C 
HETATM   25  C7  UNL     1     -14.124 -13.725  25.389  1.00  0.00     0.010 C 
BRANCH  24  26
HETATM   26  C5  UNL     1     -11.941 -12.735  26.231  1.00  0.00     0.008 C 
BRANCH  26  27
HETATM   27  C4  UNL     1     -11.169 -13.189  24.988  1.00  0.00     0.028 C 
BRANCH  27  28
HETATM   28  C3  UNL     1     -10.013 -12.275  24.678  1.00  0.00    -0.022 C 
HETATM   29  C2  UNL     1      -8.714 -12.625  24.591  1.00  0.00    -0.064 C 
HETATM   30  C1  UNL     1      -7.663 -11.611  24.228  1.00  0.00     0.045 C 
BRANCH  29  31
HETATM   31  C30 UNL     1      -8.199 -14.017  24.854  1.00  0.00     0.197 C 
BRANCH  31  32
HETATM   32  O2  UNL     1      -7.216 -14.367  23.889  1.00  0.00    -0.397 OA
HETATM   33  H48 UNL     1      -6.794 -13.543  23.594  1.00  0.00     0.209 HD
ENDBRANCH  31  32
ENDBRANCH  29  31
ENDBRANCH  27  28
ENDBRANCH  26  27
ENDBRANCH  24  26
ENDBRANCH   1  24
TORSDOF 6
ENDMDL
