MODEL 1
REMARK minimizedAffinity -6.28217983
REMARK CNNscore 0.567401171
REMARK CNNaffinity 6.46813631
REMARK  4 active torsions:
REMARK  status: ('A' for Active; 'I' for Inactive)
REMARK    1  A    between atoms: C4_4  and  C5_5 
REMARK    2  A    between atoms: C5_5  and  C6_6 
REMARK    3  A    between atoms: C6_6  and  C7_7 
REMARK    4  A    between atoms: C7_7  and  C9_9 
ROOT
HETATM    1  C9  UNL     1      -3.206  13.260  18.309  1.00  0.00    -0.002 C 
HETATM    2  C10 UNL     1      -2.485  14.284  17.380  1.00  0.00     0.007 C 
HETATM    3  C11 UNL     1      -1.711  13.482  16.318  1.00  0.00     0.015 C 
HETATM    4  C12 UNL     1      -1.722  12.030  16.839  1.00  0.00    -0.013 C 
HETATM    5  C13 UNL     1      -0.550  11.933  17.867  1.00  0.00     0.021 C 
HETATM    6  C14 UNL     1      -1.502  10.906  15.833  1.00  0.00    -0.070 C 
HETATM    7  C15 UNL     1      -0.763  11.062  14.723  1.00  0.00    -0.022 C 
HETATM    8  C16 UNL     1      -0.458   9.984  13.734  1.00  0.00     0.034 C 
HETATM    9  C17 UNL     1      -0.971   8.555  14.050  1.00  0.00     0.013 C 
HETATM   10  C18 UNL     1      -2.025   8.004  13.023  1.00  0.00     0.018 C 
HETATM   11  C19 UNL     1      -1.427   7.986  11.596  1.00  0.00     0.023 C 
HETATM   12  C20 UNL     1      -3.340   8.792  12.996  1.00  0.00     0.023 C 
HETATM   13  C21 UNL     1      -2.357   6.540  13.366  1.00  0.00     0.135 C 
HETATM   14  O1  UNL     1      -2.976   5.811  12.588  1.00  0.00    -0.297 OA
HETATM   15  C22 UNL     1      -1.881   6.002  14.694  1.00  0.00     0.080 C 
HETATM   16  C23 UNL     1      -2.155   7.039  15.769  1.00  0.00     0.017 C 
HETATM   17  C24 UNL     1      -1.331   8.344  15.575  1.00  0.00    -0.031 C 
HETATM   18  C25 UNL     1       0.010   8.176  16.348  1.00  0.00     0.016 C 
HETATM   19  C26 UNL     1      -2.147   9.563  16.148  1.00  0.00     0.024 C 
HETATM   20  C27 UNL     1      -2.543   9.422  17.641  1.00  0.00     0.010 C 
HETATM   21  C28 UNL     1      -3.298  10.625  18.250  1.00  0.00     0.011 C 
HETATM   22  C29 UNL     1      -3.163  11.946  17.460  1.00  0.00    -0.029 C 
HETATM   23  C30 UNL     1      -4.304  12.013  16.395  1.00  0.00     0.016 C 
ENDROOT
BRANCH   1  24
HETATM   24  C7  UNL     1      -4.567  13.808  18.841  1.00  0.00    -0.014 C 
HETATM   25  C8  UNL     1      -5.640  13.845  17.748  1.00  0.00     0.010 C 
BRANCH  24  26
HETATM   26  C6  UNL     1      -5.055  12.943  20.039  1.00  0.00     0.008 C 
BRANCH  26  27
HETATM   27  C5  UNL     1      -5.915  13.656  21.092  1.00  0.00     0.028 C 
BRANCH  27  28
HETATM   28  C4  UNL     1      -7.385  13.373  20.953  1.00  0.00    -0.025 C 
HETATM   29  C2  UNL     1      -8.255  13.059  21.934  1.00  0.00    -0.091 C 
HETATM   30  C1  UNL     1      -9.699  12.771  21.618  1.00  0.00     0.042 C 
HETATM   31  C3  UNL     1      -7.912  12.977  23.396  1.00  0.00     0.042 C 
ENDBRANCH  27  28
ENDBRANCH  26  27
ENDBRANCH  24  26
ENDBRANCH   1  24
TORSDOF 4
ENDMDL
