MODEL 1
REMARK minimizedAffinity -10.5271902
REMARK  7 active torsions:
REMARK  status: ('A' for Active; 'I' for Inactive)
REMARK    1  A    between atoms: C4_4  and  C5_5 
REMARK    2  A    between atoms: C15_15  and  C16_16 
REMARK    3  A    between atoms: C16_16  and  C18_18 
REMARK    4  A    between atoms: C18_18  and  C19_19 
REMARK    5  A    between atoms: C23_25  and  C24_26 
REMARK    6  A    between atoms: C27_29  and  O3_30 
REMARK    7  A    between atoms: C30_33  and  O4_34 
ROOT
HETATM    1  C5  UNL     1      -0.522  51.993 -18.469  1.00  0.00     0.004 C 
HETATM    2  C6  UNL     1      -0.509  52.188 -19.804  1.00  0.00    -0.075 C 
HETATM    3  C7  UNL     1       0.630  52.801 -20.604  1.00  0.00     0.034 C 
HETATM    4  C8  UNL     1       1.057  51.920 -21.785  1.00  0.00     0.005 C 
HETATM    5  C9  UNL     1      -0.129  51.483 -22.660  1.00  0.00     0.010 C 
HETATM    6  C10 UNL     1      -1.260  50.846 -21.833  1.00  0.00    -0.033 C 
HETATM    7  C11 UNL     1      -0.729  49.493 -21.261  1.00  0.00     0.016 C 
HETATM    8  C12 UNL     1      -1.677  51.825 -20.707  1.00  0.00     0.023 C 
HETATM    9  C13 UNL     1      -2.947  51.187 -20.145  1.00  0.00     0.010 C 
HETATM   10  C14 UNL     1      -3.662  50.611 -21.373  1.00  0.00     0.006 C 
HETATM   11  C15 UNL     1      -2.624  50.539 -22.536  1.00  0.00    -0.002 C 
ENDROOT
BRANCH   1  12
HETATM   12  C4  UNL     1       0.537  52.313 -17.533  1.00  0.00     0.008 C 
HETATM   13  C3  UNL     1       1.070  51.499 -16.598  1.00  0.00    -0.048 C 
HETATM   14  C2  UNL     1       2.149  51.974 -15.722  1.00  0.00    -0.032 C 
HETATM   15  C26 UNL     1       0.660  50.072 -16.291  1.00  0.00     0.071 C 
HETATM   16  C1  UNL     1       3.301  52.445 -16.233  1.00  0.00     0.022 C 
HETATM   17  C30 UNL     1       1.851  51.812 -14.237  1.00  0.00     0.157 C 
HETATM   18  C28 UNL     1       1.510  50.348 -13.904  1.00  0.00     0.044 C 
HETATM   19  C27 UNL     1       0.358  49.855 -14.797  1.00  0.00     0.129 C 
HETATM   20  C29 UNL     1       1.180  50.178 -12.417  1.00  0.00     0.015 C 
BRANCH  17  21
HETATM   21  O4  UNL     1       2.968  52.226 -13.448  1.00  0.00    -0.390 OA
HETATM   22  H44 UNL     1       3.030  53.190 -13.558  1.00  0.00     0.210 HD
ENDBRANCH  17  21
BRANCH  19  23
HETATM   23  O3  UNL     1      -0.856  50.519 -14.437  1.00  0.00    -0.395 OA
HETATM   24  H38 UNL     1      -1.534  50.286 -15.094  1.00  0.00     0.210 HD
ENDBRANCH  19  23
ENDBRANCH   1  12
BRANCH  11  25
HETATM   25  C16 UNL     1      -3.126  51.343 -23.776  1.00  0.00    -0.011 C 
HETATM   26  C17 UNL     1      -4.640  51.594 -23.819  1.00  0.00     0.010 C 
BRANCH  25  27
HETATM   27  C18 UNL     1      -2.382  52.669 -24.044  1.00  0.00     0.038 C 
BRANCH  27  28
HETATM   28  C19 UNL     1      -1.128  52.621 -24.934  1.00  0.00     0.141 C 
HETATM   29  O1  UNL     1      -0.801  53.997 -25.226  1.00  0.00    -0.311 OA
HETATM   30  C20 UNL     1      -0.274  54.111 -26.470  1.00  0.00     0.289 C 
HETATM   31  O2  UNL     1       0.222  55.115 -26.943  1.00  0.00    -0.260 OA
HETATM   32  C21 UNL     1      -0.427  52.799 -27.138  1.00  0.00     0.014 C 
HETATM   33  C22 UNL     1       0.233  52.537 -28.274  1.00  0.00     0.025 C 
HETATM   34  C23 UNL     1      -1.328  51.947 -26.299  1.00  0.00     0.053 C 
BRANCH  34  35
HETATM   35  C24 UNL     1      -1.008  50.445 -26.298  1.00  0.00     0.007 C 
HETATM   36  C25 UNL     1      -2.240  49.579 -26.541  1.00  0.00     0.006 C 
ENDBRANCH  34  35
ENDBRANCH  27  28
ENDBRANCH  25  27
ENDBRANCH  11  25
TORSDOF 7
ENDMDL
