MODEL 1
REMARK minimizedAffinity -10.0003433
REMARK  6 active torsions:
REMARK  status: ('A' for Active; 'I' for Inactive)
REMARK    1  A    between atoms: C2_2  and  C3_3 
REMARK       I    between atoms: C3_3  and  N1_5 
REMARK    2  A    between atoms: C7_9  and  N2_10 
REMARK    3  A    between atoms: C8_13  and  C9_14 
REMARK    4  A    between atoms: C12_17  and  O2_18 
REMARK    5  A    between atoms: O2_18  and  C13_19 
REMARK    6  A    between atoms: C22_28  and  N4_29 
ROOT
HETATM    1  N2  UNL     1      -0.441  51.538 -23.451  1.00  0.00    -0.269 N 
HETATM    2  N3  UNL     1      -0.612  50.823 -22.319  1.00  0.00    -0.295 N 
ATOM      3  H3  UNL     1      -1.037  49.901 -22.221  1.00  0.00     0.187 HD
HETATM    4  C8  UNL     1      -0.096  51.600 -21.350  1.00  0.00     0.075 A 
HETATM    5  C21 UNL     1       0.486  52.784 -21.892  1.00  0.00     0.076 A 
HETATM    6  C22 UNL     1       1.200  53.904 -21.447  1.00  0.00     0.095 A 
HETATM    7  N5  UNL     1       1.578  54.833 -22.351  1.00  0.00    -0.342 N 
ATOM      8  H5  UNL     1       2.096  55.661 -22.059  1.00  0.00     0.167 HD
HETATM    9  C23 UNL     1       1.257  54.643 -23.644  1.00  0.00     0.183 A 
HETATM   10  N6  UNL     1       0.599  53.607 -24.187  1.00  0.00    -0.337 N 
ATOM     11  H6  UNL     1       0.398  53.512 -25.183  1.00  0.00     0.168 HD
HETATM   12  C24 UNL     1       0.237  52.710 -23.253  1.00  0.00     0.139 A 
ENDROOT
BRANCH   4  13
HETATM   13  C9  UNL     1      -0.160  51.173 -19.955  1.00  0.00    -0.007 A 
HETATM   14  C10 UNL     1       0.238  52.033 -18.923  1.00  0.00     0.016 A 
HETATM   15  C11 UNL     1       0.184  51.610 -17.591  1.00  0.00     0.038 A 
HETATM   16  C12 UNL     1      -0.290  50.336 -17.284  1.00  0.00     0.076 A 
HETATM   17  C19 UNL     1      -0.684  49.468 -18.304  1.00  0.00     0.038 A 
HETATM   18  C20 UNL     1      -0.631  49.892 -19.635  1.00  0.00     0.016 A 
BRANCH  16  19
HETATM   19  O2  UNL     1      -0.275  49.969 -15.958  1.00  0.00    -0.311 OA
BRANCH  19  20
HETATM   20  C13 UNL     1      -1.022  50.722 -15.081  1.00  0.00     0.076 A 
HETATM   21  C14 UNL     1      -0.462  51.401 -13.996  1.00  0.00     0.037 A 
HETATM   22  C15 UNL     1      -1.287  52.114 -13.124  1.00  0.00     0.003 A 
HETATM   23  C16 UNL     1      -2.667  52.135 -13.327  1.00  0.00     0.000 A 
HETATM   24  C17 UNL     1      -3.226  51.438 -14.399  1.00  0.00     0.003 A 
HETATM   25  C18 UNL     1      -2.404  50.724 -15.271  1.00  0.00     0.037 A 
ENDBRANCH  19  20
ENDBRANCH  16  19
ENDBRANCH   4  13
BRANCH   1  26
HETATM   26  C7  UNL     1      -0.910  50.988 -24.715  1.00  0.00     0.128 C 
HETATM   27  C6  UNL     1      -0.228  51.660 -25.922  1.00  0.00     0.030 C 
HETATM   28  C5  UNL     1      -0.756  51.104 -27.249  1.00  0.00     0.022 C 
HETATM   29  C4  UNL     1      -2.285  51.157 -27.309  1.00  0.00     0.126 C 
HETATM   30  N1  UNL     1      -2.850  50.465 -26.149  1.00  0.00    -0.347 N 
HETATM   31  C3  UNL     1      -3.274  49.144 -26.154  1.00  0.00     0.242 C 
HETATM   32  C25 UNL     1      -2.438  51.039 -24.862  1.00  0.00     0.153 C 
HETATM   33  O1  UNL     1      -3.314  48.449 -25.142  1.00  0.00    -0.268 OA
BRANCH  31  34
HETATM   34  C2  UNL     1      -3.715  48.586 -27.460  1.00  0.00     0.064 C 
HETATM   35  C1  UNL     1      -4.958  48.108 -27.605  1.00  0.00     0.017 C 
ENDBRANCH  31  34
ENDBRANCH   1  26
BRANCH   6  36
HETATM   36  N4  UNL     1       1.586  54.132 -20.133  1.00  0.00    -0.288 NA
HETATM   37  H20 UNL     1       1.767  53.298 -19.589  1.00  0.00     0.125 HD
HETATM   38  H21 UNL     1       2.306  54.844 -20.096  1.00  0.00     0.125 HD
ENDBRANCH   6  36
TORSDOF 6
ENDMDL
