MODEL 1
REMARK minimizedAffinity -7.47528505
REMARK  6 active torsions:
REMARK  status: ('A' for Active; 'I' for Inactive)
REMARK    1  A    between atoms: C4_5  and  N2_6 
REMARK       I    between atoms: N2_6  and  C5_7 
REMARK    2  A    between atoms: C5_7  and  C6_9 
REMARK    3  A    between atoms: C6_9  and  O3_11 
REMARK    4  A    between atoms: C8_14  and  N3_15 
REMARK       I    between atoms: N3_15  and  C9_16 
REMARK    5  A    between atoms: C9_16  and  C10_18 
REMARK    6  A    between atoms: C10_18  and  O6_20 
ROOT
HETATM    1  N1  UNL     1       1.726  54.251 -20.597  1.00  0.00    -0.191 NA
HETATM    2  C1  UNL     1       1.117  53.580 -21.322  1.00  0.00     0.099 C 
HETATM    3  C2  UNL     1       0.365  52.750 -22.220  1.00  0.00     0.049 A 
HETATM    4  C3  UNL     1      -0.276  51.603 -21.735  1.00  0.00     0.054 A 
HETATM    5  C4  UNL     1      -1.013  50.786 -22.597  1.00  0.00     0.060 A 
HETATM    6  C7  UNL     1      -1.095  51.140 -23.961  1.00  0.00     0.087 A 
HETATM    7 CL1  UNL     1      -2.009  50.133 -25.051  1.00  0.00    -0.079 Cl
HETATM    8  C8  UNL     1      -0.452  52.294 -24.461  1.00  0.00     0.060 A 
HETATM    9  C11 UNL     1       0.277  53.091 -23.575  1.00  0.00     0.054 A 
ENDROOT
BRANCH   5  10
HETATM   10  N2  UNL     1      -1.679  49.619 -22.162  1.00  0.00    -0.316 N 
HETATM   11  C5  UNL     1      -1.331  48.760 -21.135  1.00  0.00     0.319 C 
HETATM   12  O1  UNL     1      -0.367  48.838 -20.390  1.00  0.00    -0.261 OA
HETATM   13  H2  UNL     1      -2.531  49.362 -22.661  1.00  0.00     0.169 HD
BRANCH  11  14
HETATM   14  C6  UNL     1      -2.339  47.583 -20.980  1.00  0.00     0.237 C 
HETATM   15  O2  UNL     1      -3.240  47.513 -20.172  1.00  0.00    -0.643 OA
BRANCH  14  16
HETATM   16  O3  UNL     1      -2.107  46.600 -21.872  1.00  0.00    -0.769 OA
HETATM   17  H3  UNL     1      -2.803  45.939 -21.662  1.00  0.00     0.168 HD
ENDBRANCH  14  16
ENDBRANCH  11  14
ENDBRANCH   5  10
BRANCH   8  18
HETATM   18  N3  UNL     1      -0.574  52.594 -25.837  1.00  0.00    -0.316 N 
HETATM   19  C9  UNL     1      -0.255  53.770 -26.491  1.00  0.00     0.319 C 
HETATM   20  O4  UNL     1       0.197  54.796 -26.010  1.00  0.00    -0.261 OA
HETATM   21  H4  UNL     1      -0.942  51.851 -26.433  1.00  0.00     0.169 HD
BRANCH  19  22
HETATM   22  C10 UNL     1      -0.549  53.664 -28.012  1.00  0.00     0.237 C 
HETATM   23  O5  UNL     1       0.230  53.142 -28.790  1.00  0.00    -0.643 OA
BRANCH  22  24
HETATM   24  O6  UNL     1      -1.715  54.188 -28.389  1.00  0.00    -0.769 OA
HETATM   25  H5  UNL     1      -1.769  54.054 -29.356  1.00  0.00     0.168 HD
ENDBRANCH  22  24
ENDBRANCH  19  22
ENDBRANCH   8  18
TORSDOF 6
ENDMDL
