MODEL 1
REMARK minimizedAffinity -9.21161175
REMARK  6 active torsions:
REMARK  status: ('A' for Active; 'I' for Inactive)
REMARK    1  A    between atoms: C2_2  and  C4_4 
REMARK    2  A    between atoms: C4_4  and  O1_5 
REMARK    3  A    between atoms: C4_4  and  C5_6 
REMARK    4  A    between atoms: C5_6  and  C6_7 
REMARK    5  A    between atoms: C6_7  and  C7_8 
REMARK    6  A    between atoms: C7_8  and  C9_10 
ROOT
HETATM    1  C9  UNL     1       1.084   7.469  11.974  1.00  0.00    -0.001 C 
HETATM    2  C10 UNL     1       0.551   6.753  10.701  1.00  0.00     0.007 C 
HETATM    3  C11 UNL     1      -0.865   6.238  11.022  1.00  0.00     0.024 C 
HETATM    4  C12 UNL     1      -1.172   6.795  12.392  1.00  0.00     0.092 C 
HETATM    5  C13 UNL     1      -1.816   8.207  12.304  1.00  0.00     0.272 C 
HETATM    6  O2  UNL     1      -1.701   9.028  11.411  1.00  0.00    -0.264 OA
HETATM    7  O3  UNL     1      -2.574   8.413  13.442  1.00  0.00    -0.305 OA
HETATM    8  C14 UNL     1      -2.499   7.231  14.275  1.00  0.00     0.113 C 
HETATM    9  C15 UNL     1      -1.241   7.408  15.184  1.00  0.00     0.043 C 
HETATM   10  C16 UNL     1       0.048   7.758  14.390  1.00  0.00     0.014 C 
HETATM   11  C17 UNL     1       0.212   6.876  13.124  1.00  0.00    -0.020 C 
HETATM   12  C18 UNL     1       0.740   5.495  13.571  1.00  0.00     0.017 C 
HETATM   13  C19 UNL     1      -2.205   6.176  13.249  1.00  0.00     0.137 A 
HETATM   14  O4  UNL     1      -2.192   4.802  13.586  1.00  0.00    -0.364 OA
HETATM   15  C20 UNL     1      -3.270   5.236  12.730  1.00  0.00     0.162 A 
HETATM   16  C21 UNL     1      -4.627   5.227  13.363  1.00  0.00     0.042 C 
HETATM   17  C22 UNL     1      -4.954   6.617  13.954  1.00  0.00     0.014 C 
HETATM   18  C23 UNL     1      -6.454   6.826  14.346  1.00  0.00     0.018 C 
HETATM   19  C24 UNL     1      -7.335   6.812  13.077  1.00  0.00     0.023 C 
HETATM   20  C25 UNL     1      -7.012   5.788  15.329  1.00  0.00     0.023 C 
HETATM   21  C26 UNL     1      -6.632   8.218  14.972  1.00  0.00     0.135 C 
HETATM   22  O5  UNL     1      -7.720   8.602  15.409  1.00  0.00    -0.297 OA
HETATM   23  C27 UNL     1      -5.421   9.114  15.016  1.00  0.00     0.080 C 
HETATM   24  C28 UNL     1      -4.303   8.371  15.732  1.00  0.00     0.020 C 
HETATM   25  C29 UNL     1      -3.871   7.040  15.032  1.00  0.00    -0.004 C 
HETATM   26  C30 UNL     1      -3.691   5.982  16.154  1.00  0.00     0.019 C 
ENDROOT
BRANCH   1  27
HETATM   27  C7  UNL     1       2.639   7.564  12.039  1.00  0.00    -0.014 C 
HETATM   28  C8  UNL     1       3.267   8.914  11.673  1.00  0.00     0.010 C 
BRANCH  27  29
HETATM   29  C6  UNL     1       3.304   6.415  11.251  1.00  0.00     0.007 C 
BRANCH  29  30
HETATM   30  C5  UNL     1       3.774   6.723   9.816  1.00  0.00     0.036 C 
BRANCH  30  31
HETATM   31  C4  UNL     1       2.810   6.253   8.712  1.00  0.00     0.146 C 
BRANCH  31  32
HETATM   32  C2  UNL     1       2.486   7.267   7.628  1.00  0.00    -0.065 C 
HETATM   33  C1  UNL     1       1.828   7.001   6.486  1.00  0.00     0.016 C 
HETATM   34  C3  UNL     1       2.971   8.667   7.914  1.00  0.00     0.045 C 
ENDBRANCH  31  32
BRANCH  31  35
HETATM   35  O1  UNL     1       3.358   5.118   8.049  1.00  0.00    -0.391 OA
HETATM   36  H7  UNL     1       4.121   5.438   7.535  1.00  0.00     0.210 HD
ENDBRANCH  31  35
ENDBRANCH  30  31
ENDBRANCH  29  30
ENDBRANCH  27  29
ENDBRANCH   1  27
TORSDOF 6
ENDMDL
