MODEL 1
REMARK minimizedAffinity -8.72266483
REMARK CNNscore 0.468839735
REMARK CNNaffinity 7.11580706
REMARK  19 active torsions:
REMARK  status: ('A' for Active; 'I' for Inactive)
REMARK    1  A    between atoms: C19_20  and  O2_21 
REMARK    2  A    between atoms: C19_20  and  C20_22 
REMARK    3  A    between atoms: C20_22  and  C21_24 
REMARK    4  A    between atoms: C21_24  and  O4_25 
REMARK    5  A    between atoms: O4_25  and  C22_26 
REMARK    6  A    between atoms: C22_26  and  C23_28 
REMARK    7  A    between atoms: C23_28  and  C24_29 
REMARK    8  A    between atoms: C24_29  and  C25_30 
REMARK       I    between atoms: C25_30  and  N1_32 
REMARK    9  A    between atoms: N1_32  and  C26_33 
REMARK   10  A    between atoms: C26_33  and  C27_34 
REMARK   11  A    between atoms: C27_34  and  C28_35 
REMARK   12  A    between atoms: C28_35  and  C29_36 
REMARK   13  A    between atoms: C29_36  and  C30_37 
REMARK   14  A    between atoms: C30_37  and  C31_38 
REMARK       I    between atoms: C31_38  and  N2_40 
REMARK   15  A    between atoms: N2_40  and  C32_41 
REMARK   16  A    between atoms: C32_41  and  C33_42 
REMARK   17  A    between atoms: C32_41  and  C40_49 
REMARK   18  A    between atoms: C33_42  and  C34_43 
REMARK   19  A    between atoms: C40_49  and  O9_51 
ROOT
HETATM    1  C22 UNL     1      -1.841  49.018 -14.749  1.00  0.00     0.259 C 
HETATM    2  O5  UNL     1      -1.205  47.973 -14.809  1.00  0.00    -0.265 OA
ENDROOT
BRANCH   1   3
HETATM    3  O4  UNL     1      -3.023  49.233 -15.381  1.00  0.00    -0.314 OA
BRANCH   3   4
HETATM    4  C21 UNL     1      -3.118  48.624 -16.667  1.00  0.00     0.260 C 
BRANCH   4   5
HETATM    5  C20 UNL     1      -2.751  49.623 -17.758  1.00  0.00     0.185 C 
HETATM    6  O3  UNL     1      -2.707  50.835 -17.531  1.00  0.00    -0.292 OA
BRANCH   5   7
HETATM    7  C19 UNL     1      -2.394  49.027 -19.145  1.00  0.00     0.128 C 
HETATM    8  C14 UNL     1      -2.322  50.081 -20.301  1.00  0.00    -0.002 C 
HETATM    9  C13 UNL     1      -1.005  50.863 -20.467  1.00  0.00     0.013 C 
HETATM   10  C15 UNL     1      -3.497  51.092 -20.177  1.00  0.00     0.019 C 
HETATM   11  C16 UNL     1      -2.450  49.146 -21.527  1.00  0.00     0.002 C 
HETATM   12  C12 UNL     1      -0.952  51.638 -21.797  1.00  0.00     0.007 C 
HETATM   13  C11 UNL     1      -1.217  50.747 -23.036  1.00  0.00     0.002 C 
HETATM   14  C2  UNL     1      -1.172  51.530 -24.405  1.00  0.00    -0.016 C 
HETATM   15  C10 UNL     1      -2.513  49.896 -22.865  1.00  0.00    -0.004 C 
HETATM   16  C1  UNL     1      -2.183  52.697 -24.440  1.00  0.00     0.020 C 
HETATM   17  C3  UNL     1       0.266  52.100 -24.594  1.00  0.00     0.022 C 
HETATM   18  C7  UNL     1      -1.504  50.574 -25.558  1.00  0.00    -0.068 C 
HETATM   19  C4  UNL     1       0.563  52.571 -26.009  1.00  0.00     0.084 C 
HETATM   20  C5  UNL     1       0.284  51.478 -27.005  1.00  0.00     0.149 C 
HETATM   21  O1  UNL     1       0.876  51.402 -28.080  1.00  0.00    -0.293 OA
HETATM   22  C6  UNL     1      -0.813  50.527 -26.709  1.00  0.00     0.053 C 
HETATM   23  C8  UNL     1      -2.701  49.672 -25.372  1.00  0.00     0.035 C 
HETATM   24  C9  UNL     1      -2.660  48.925 -24.044  1.00  0.00     0.010 C 
HETATM   25  C17 UNL     1      -3.615  48.231 -21.161  1.00  0.00     0.009 C 
HETATM   26  C18 UNL     1      -3.498  48.044 -19.636  1.00  0.00     0.047 C 
BRANCH   7  27
HETATM   27  O2  UNL     1      -1.200  48.243 -19.066  1.00  0.00    -0.381 OA
HETATM   28  H27 UNL     1      -0.423  48.819 -18.975  1.00  0.00     0.211 HD
ENDBRANCH   7  27
ENDBRANCH   5   7
ENDBRANCH   4   5
ENDBRANCH   3   4
ENDBRANCH   1   3
BRANCH   1  29
HETATM   29  C23 UNL     1      -1.347  50.264 -14.050  1.00  0.00     0.120 C 
BRANCH  29  30
HETATM   30  C24 UNL     1      -2.311  51.442 -14.139  1.00  0.00     0.112 C 
BRANCH  30  31
HETATM   31  C25 UNL     1      -3.077  51.645 -12.847  1.00  0.00     0.217 C 
HETATM   32  O6  UNL     1      -3.333  50.732 -12.070  1.00  0.00    -0.274 OA
HETATM   33  N1  UNL     1      -3.435  52.959 -12.630  1.00  0.00    -0.361 N 
HETATM   34  H34 UNL     1      -3.132  53.669 -13.283  1.00  0.00     0.162 HD
BRANCH  33  35
HETATM   35  C26 UNL     1      -4.064  53.383 -11.395  1.00  0.00     0.122 C 
BRANCH  35  36
HETATM   36  C27 UNL     1      -3.087  54.180 -10.536  1.00  0.00     0.020 C 
BRANCH  36  37
HETATM   37  C28 UNL     1      -2.309  53.317  -9.539  1.00  0.00     0.002 C 
BRANCH  37  38
HETATM   38  C29 UNL     1      -1.035  52.716 -10.143  1.00  0.00     0.009 C 
BRANCH  38  39
HETATM   39  C30 UNL     1      -0.207  53.741 -10.917  1.00  0.00     0.103 C 
BRANCH  39  40
HETATM   40  C31 UNL     1       1.066  54.159 -10.201  1.00  0.00     0.218 C 
HETATM   41  O7  UNL     1       2.161  53.641 -10.383  1.00  0.00    -0.274 OA
HETATM   42  N2  UNL     1       0.862  55.198  -9.315  1.00  0.00    -0.346 N 
HETATM   43  H45 UNL     1      -0.084  55.300  -8.962  1.00  0.00     0.163 HD
BRANCH  42  44
HETATM   44  C32 UNL     1       1.933  55.603  -8.394  1.00  0.00     0.186 C 
BRANCH  44  45
HETATM   45  C33 UNL     1       3.000  56.406  -9.149  1.00  0.00     0.074 C 
BRANCH  45  46
HETATM   46  C34 UNL     1       4.414  55.982  -8.836  1.00  0.00    -0.056 A 
HETATM   47  C35 UNL     1       5.062  56.462  -7.688  1.00  0.00     0.007 A 
HETATM   48  C36 UNL     1       6.374  56.079  -7.407  1.00  0.00     0.001 A 
HETATM   49  C37 UNL     1       7.051  55.218  -8.267  1.00  0.00     0.000 A 
HETATM   50  C38 UNL     1       6.417  54.737  -9.410  1.00  0.00     0.001 A 
HETATM   51  C39 UNL     1       5.105  55.117  -9.696  1.00  0.00     0.007 A 
ENDBRANCH  45  46
ENDBRANCH  44  45
BRANCH  44  52
HETATM   52  C40 UNL     1       1.289  56.474  -7.319  1.00  0.00     0.163 C 
HETATM   53  O8  UNL     1       1.799  57.461  -6.803  1.00  0.00    -0.648 OA
BRANCH  52  54
HETATM   54  O9  UNL     1       0.065  56.059  -6.946  1.00  0.00    -0.775 OA
HETATM   55  H54 UNL     1      -0.228  56.708  -6.273  1.00  0.00     0.167 HD
ENDBRANCH  52  54
ENDBRANCH  44  52
ENDBRANCH  42  44
ENDBRANCH  39  40
ENDBRANCH  38  39
ENDBRANCH  37  38
ENDBRANCH  36  37
ENDBRANCH  35  36
ENDBRANCH  33  35
ENDBRANCH  30  31
ENDBRANCH  29  30
ENDBRANCH   1  29
TORSDOF 19
ENDMDL
