MODEL 1
REMARK minimizedAffinity -6.58735418
REMARK CNNscore 0.603013873
REMARK CNNaffinity 5.99250793
REMARK  2 active torsions:
REMARK  status: ('A' for Active; 'I' for Inactive)
REMARK    1  A    between atoms: C21_27  and  C22_28 
REMARK    2  A    between atoms: C22_28  and  O7_30 
ROOT
HETATM    1  C1  UNL     1      13.193  -0.923   3.392  1.00  0.00     0.043 C 
HETATM    2  C2  UNL     1      14.592  -1.457   3.220  1.00  0.00    -0.076 C 
HETATM    3  C3  UNL     1      15.056  -1.745   1.987  1.00  0.00     0.084 C 
HETATM    4  C4  UNL     1      16.382  -2.328   1.677  1.00  0.00     0.283 C 
HETATM    5  O1  UNL     1      17.311  -2.472   2.452  1.00  0.00    -0.260 OA
HETATM    6  O2  UNL     1      16.358  -2.715   0.375  1.00  0.00    -0.317 OA
HETATM    7  C5  UNL     1      17.542  -3.352  -0.121  1.00  0.00     0.195 C 
HETATM    8  C6  UNL     1      17.236  -4.568  -1.063  1.00  0.00     0.053 C 
HETATM    9  C7  UNL     1      16.196  -4.122  -2.167  1.00  0.00     0.159 C 
HETATM   10  C8  UNL     1      16.770  -3.229  -3.237  1.00  0.00     0.011 C 
HETATM   11  C9  UNL     1      18.064  -3.285  -3.603  1.00  0.00    -0.054 C 
HETATM   12  C10 UNL     1      18.609  -2.404  -4.692  1.00  0.00     0.046 C 
HETATM   13  C11 UNL     1      18.994  -4.262  -3.011  1.00  0.00     0.180 A 
HETATM   14  O3  UNL     1      18.636  -5.650  -2.904  1.00  0.00    -0.370 OA
HETATM   15  C12 UNL     1      18.606  -4.899  -1.691  1.00  0.00     0.170 A 
HETATM   16  O4  UNL     1      15.568  -5.211  -2.869  1.00  0.00    -0.372 OA
HETATM   17  C13 UNL     1      15.139  -6.308  -2.059  1.00  0.00     0.162 C 
HETATM   18  C14 UNL     1      14.224  -5.844  -0.922  1.00  0.00     0.068 C 
HETATM   19  C15 UNL     1      15.182  -5.568   0.264  1.00  0.00     0.147 C 
HETATM   20  O5  UNL     1      14.867  -6.491   1.330  1.00  0.00    -0.312 OA
HETATM   21  C16 UNL     1      13.840  -6.139   2.147  1.00  0.00     0.283 C 
HETATM   22  O6  UNL     1      13.204  -5.101   2.093  1.00  0.00    -0.260 OA
HETATM   23  C17 UNL     1      13.626  -7.269   3.081  1.00  0.00     0.082 C 
HETATM   24  C18 UNL     1      12.815  -7.283   4.148  1.00  0.00     0.006 C 
HETATM   25  C19 UNL     1      12.017  -6.200   4.668  1.00  0.00    -0.001 C 
HETATM   26  C20 UNL     1      12.469  -5.153   5.377  1.00  0.00     0.007 C 
HETATM   27  C21 UNL     1      13.889  -4.833   5.765  1.00  0.00     0.172 C 
HETATM   28  O8  UNL     1      14.051  -3.442   5.447  1.00  0.00    -0.379 OA
HETATM   29  C24 UNL     1      15.363  -3.102   4.999  1.00  0.00     0.173 C 
HETATM   30  C25 UNL     1      15.364  -1.650   4.513  1.00  0.00     0.060 C 
HETATM   31  C26 UNL     1      16.646  -5.834  -0.276  1.00  0.00     0.034 C 
HETATM   32  C27 UNL     1      17.576  -6.348   0.833  1.00  0.00     0.022 C 
HETATM   33  C28 UNL     1      16.322  -6.859  -1.342  1.00  0.00     0.119 A 
HETATM   34  C29 UNL     1      17.202  -7.972  -1.859  1.00  0.00     0.210 A 
HETATM   35  O9  UNL     1      16.170  -8.216  -0.893  1.00  0.00    -0.371 OA
ENDROOT
BRANCH  27  36
HETATM   36  C22 UNL     1      14.177  -5.063   7.278  1.00  0.00     0.146 C 
HETATM   37  C23 UNL     1      12.930  -5.039   8.155  1.00  0.00     0.042 C 
BRANCH  36  38
HETATM   38  O7  UNL     1      14.805  -6.340   7.489  1.00  0.00    -0.393 OA
HETATM   39  H27 UNL     1      14.227  -7.024   7.109  1.00  0.00     0.210 HD
ENDBRANCH  36  38
ENDBRANCH  27  36
TORSDOF 2
ENDMDL
