MODEL 1
REMARK minimizedAffinity -7.69367743
REMARK CNNscore 0.73722142
REMARK CNNaffinity 6.95152426
REMARK  9 active torsions:
REMARK  status: ('A' for Active; 'I' for Inactive)
REMARK    1  A    between atoms: C2_2  and  C35_40 
REMARK    2  A    between atoms: C3_3  and  C4_4 
REMARK    3  A    between atoms: C4_4  and  O1_5 
REMARK    4  A    between atoms: C4_4  and  C5_6 
REMARK    5  A    between atoms: C5_6  and  C6_7 
REMARK    6  A    between atoms: C6_7  and  C8_9 
REMARK    7  A    between atoms: C10_11  and  O2_12 
REMARK    8  A    between atoms: C33_37  and  O5_38 
REMARK    9  A    between atoms: C35_40  and  O7_42 
ROOT
HETATM    1  C8  UNL     1     -12.518  15.092   1.109  1.00  0.00     0.002 C 
HETATM    2  C9  UNL     1     -13.326  14.602   2.337  1.00  0.00     0.038 C 
HETATM    3  C10 UNL     1     -12.645  15.186   3.569  1.00  0.00     0.132 C 
HETATM    4  C11 UNL     1     -11.138  15.081   3.217  1.00  0.00     0.017 C 
HETATM    5  C12 UNL     1     -10.747  13.565   3.299  1.00  0.00     0.023 C 
HETATM    6  C13 UNL     1     -10.232  15.921   4.145  1.00  0.00    -0.029 C 
HETATM    7  C14 UNL     1      -9.659  17.096   3.780  1.00  0.00     0.003 C 
HETATM    8  C15 UNL     1     -10.250  17.826   2.614  1.00  0.00     0.157 C 
HETATM    9  O3  UNL     1     -10.081  19.037   2.463  1.00  0.00    -0.293 OA
HETATM   10  C16 UNL     1     -11.110  17.101   1.621  1.00  0.00     0.094 C 
HETATM   11  C17 UNL     1     -11.085  15.558   1.702  1.00  0.00    -0.016 C 
HETATM   12  C18 UNL     1      -9.828  15.017   0.908  1.00  0.00     0.011 C 
HETATM   13  C19 UNL     1      -8.408  15.153   1.502  1.00  0.00     0.001 C 
HETATM   14  C20 UNL     1      -7.732  16.512   1.316  1.00  0.00     0.000 C 
HETATM   15  C21 UNL     1      -6.741  16.891   2.425  1.00  0.00     0.001 C 
HETATM   16  C22 UNL     1      -7.167  16.776   3.907  1.00  0.00     0.015 C 
HETATM   17  C23 UNL     1      -8.381  17.637   4.483  1.00  0.00    -0.003 C 
HETATM   18  C24 UNL     1      -8.068  19.130   4.210  1.00  0.00     0.022 C 
HETATM   19  C25 UNL     1      -6.906  19.686   5.012  1.00  0.00     0.080 C 
HETATM   20  C26 UNL     1      -7.100  19.530   6.497  1.00  0.00     0.136 C 
HETATM   21  O4  UNL     1      -6.367  20.152   7.271  1.00  0.00    -0.297 OA
HETATM   22  C27 UNL     1      -8.225  18.618   6.998  1.00  0.00     0.025 C 
HETATM   23  C28 UNL     1      -7.833  18.135   8.423  1.00  0.00     0.024 C 
HETATM   24  C29 UNL     1      -9.515  19.467   7.111  1.00  0.00     0.044 C 
HETATM   25  C30 UNL     1     -10.778  18.663   7.086  1.00  0.00    -0.029 C 
HETATM   26  C31 UNL     1     -10.812  17.343   6.853  1.00  0.00    -0.023 C 
HETATM   27  C32 UNL     1      -9.591  16.501   6.530  1.00  0.00     0.047 C 
HETATM   28  C33 UNL     1      -9.894  15.372   5.517  1.00  0.00     0.156 C 
HETATM   29  C34 UNL     1      -8.391  17.365   6.064  1.00  0.00     0.025 C 
ENDROOT
BRANCH   1  30
HETATM   30  C6  UNL     1     -12.562  14.123  -0.115  1.00  0.00    -0.011 C 
HETATM   31  C7  UNL     1     -13.507  14.671  -1.198  1.00  0.00     0.010 C 
BRANCH  30  32
HETATM   32  C5  UNL     1     -13.039  12.693   0.260  1.00  0.00     0.040 C 
BRANCH  32  33
HETATM   33  C4  UNL     1     -14.414  12.290  -0.311  1.00  0.00     0.142 C 
BRANCH  33  34
HETATM   34  C3  UNL     1     -14.302  11.258  -1.393  1.00  0.00     0.018 C 
HETATM   35  C2  UNL     1     -13.933   9.966  -1.276  1.00  0.00     0.010 C 
HETATM   36  C1  UNL     1     -13.522   9.264  -0.018  1.00  0.00     0.055 C 
BRANCH  35  37
HETATM   37  C35 UNL     1     -13.934   9.180  -2.533  1.00  0.00     0.171 C 
HETATM   38  O6  UNL     1     -14.908   8.878  -3.200  1.00  0.00    -0.646 OA
BRANCH  37  39
HETATM   39  O7  UNL     1     -12.697   8.811  -2.910  1.00  0.00    -0.773 OA
HETATM   40  H48 UNL     1     -12.858   8.338  -3.749  1.00  0.00     0.167 HD
ENDBRANCH  37  39
ENDBRANCH  35  37
ENDBRANCH  33  34
BRANCH  33  41
HETATM   41  O1  UNL     1     -15.175  11.685   0.730  1.00  0.00    -0.392 OA
HETATM   42  H6  UNL     1     -15.246  12.334   1.451  1.00  0.00     0.210 HD
ENDBRANCH  33  41
ENDBRANCH  32  33
ENDBRANCH  30  32
ENDBRANCH   1  30
BRANCH   3  43
HETATM   43  O2  UNL     1     -13.086  16.526   3.755  1.00  0.00    -0.394 OA
HETATM   44  H17 UNL     1     -12.697  16.833   4.595  1.00  0.00     0.210 HD
ENDBRANCH   3  43
BRANCH  28  45
HETATM   45  O5  UNL     1     -10.986  14.605   6.022  1.00  0.00    -0.390 OA
HETATM   46  H46 UNL     1     -10.754  14.323   6.920  1.00  0.00     0.210 HD
ENDBRANCH  28  45
TORSDOF 9
ENDMDL
