MODEL 1
REMARK minimizedAffinity -7.51782703
REMARK CNNscore 0.8287642
REMARK CNNaffinity 7.81974649
REMARK  14 active torsions:
REMARK  status: ('A' for Active; 'I' for Inactive)
REMARK    1  A    between atoms: C5_5  and  C6_6 
REMARK    2  A    between atoms: C6_6  and  C8_8 
REMARK    3  A    between atoms: C8_8  and  O1_9 
REMARK    4  A    between atoms: O1_9  and  C9_10 
REMARK    5  A    between atoms: C17_20  and  O4_21 
REMARK    6  A    between atoms: C19_23  and  O5_24 
REMARK    7  A    between atoms: O5_24  and  C20_25 
REMARK    8  A    between atoms: C20_25  and  C21_27 
REMARK    9  A    between atoms: C21_27  and  C22_28 
REMARK   10  A    between atoms: C21_27  and  O7_30 
REMARK   11  A    between atoms: O7_30  and  C24_31 
REMARK   12  A    between atoms: C24_31  and  C25_33 
REMARK   13  A    between atoms: C25_33  and  C26_34 
REMARK   14  A    between atoms: C28_36  and  O9_38 
ROOT
HETATM    1  C1  UNL     1       2.327  10.312  13.937  1.00  0.00     0.015 C 
HETATM    2  C2  UNL     1       1.115  10.058  14.457  1.00  0.00    -0.082 C 
HETATM    3  C3  UNL     1       0.290  11.138  15.089  1.00  0.00     0.034 C 
HETATM    4  C4  UNL     1      -1.073  11.164  14.414  1.00  0.00     0.010 C 
HETATM    5  C5  UNL     1      -1.877   9.855  14.591  1.00  0.00    -0.001 C 
HETATM    6  C11 UNL     1      -1.008   8.605  14.923  1.00  0.00     0.033 C 
HETATM    7  C12 UNL     1      -1.385   7.303  14.200  1.00  0.00     0.163 C 
HETATM    8  O3  UNL     1      -0.890   7.566  12.891  1.00  0.00    -0.376 OA
HETATM    9  C13 UNL     1       0.474   7.962  13.059  1.00  0.00     0.134 C 
HETATM   10  C14 UNL     1       1.342   6.676  13.030  1.00  0.00     0.068 C 
HETATM   11  C15 UNL     1       0.999   5.661  11.933  1.00  0.00    -0.058 C 
HETATM   12  C16 UNL     1       1.970   5.301  11.069  1.00  0.00     0.017 C 
HETATM   13  C17 UNL     1      -0.445   5.120  11.841  1.00  0.00     0.149 C 
HETATM   14  C18 UNL     1      -1.078   4.593  13.156  1.00  0.00     0.072 C 
HETATM   15  C19 UNL     1      -2.528   5.099  13.462  1.00  0.00     0.171 C 
HETATM   16  C28 UNL     1      -2.735   6.579  14.073  1.00  0.00     0.107 C 
HETATM   17  C29 UNL     1      -3.781   7.349  13.252  1.00  0.00     0.051 C 
HETATM   18  C30 UNL     1       0.487   8.685  14.439  1.00  0.00     0.050 C 
ENDROOT
BRANCH  15  19
HETATM   19  O5  UNL     1      -3.345   4.920  12.274  1.00  0.00    -0.311 OA
BRANCH  19  20
HETATM   20  C20 UNL     1      -3.812   3.663  12.031  1.00  0.00     0.289 C 
HETATM   21  O6  UNL     1      -3.124   2.648  12.032  1.00  0.00    -0.262 OA
BRANCH  20  22
HETATM   22  C21 UNL     1      -5.321   3.693  11.762  1.00  0.00     0.231 C 
BRANCH  22  23
HETATM   23  C22 UNL     1      -5.713   2.665  10.694  1.00  0.00     0.038 C 
HETATM   24  C23 UNL     1      -5.849   1.255  11.248  1.00  0.00     0.008 C 
ENDBRANCH  22  23
BRANCH  22  25
HETATM   25  O7  UNL     1      -6.013   3.320  12.972  1.00  0.00    -0.306 OA
BRANCH  25  26
HETATM   26  C24 UNL     1      -7.301   3.765  13.045  1.00  0.00     0.259 C 
HETATM   27  O8  UNL     1      -8.282   3.038  13.122  1.00  0.00    -0.265 OA
BRANCH  26  28
HETATM   28  C25 UNL     1      -7.315   5.275  13.014  1.00  0.00     0.111 C 
BRANCH  28  29
HETATM   29  C26 UNL     1      -7.827   5.902  14.310  1.00  0.00     0.005 C 
HETATM   30  C27 UNL     1      -9.141   6.649  14.129  1.00  0.00     0.005 C 
ENDBRANCH  28  29
ENDBRANCH  26  28
ENDBRANCH  25  26
ENDBRANCH  22  25
ENDBRANCH  20  22
ENDBRANCH  19  20
ENDBRANCH  15  19
BRANCH  16  31
HETATM   31  O9  UNL     1      -3.233   6.409  15.417  1.00  0.00    -0.385 OA
HETATM   32  H45 UNL     1      -4.098   6.851  15.499  1.00  0.00     0.210 HD
ENDBRANCH  16  31
BRANCH  13  33
HETATM   33  O4  UNL     1      -0.490   4.043  10.891  1.00  0.00    -0.391 OA
HETATM   34  H25 UNL     1       0.085   3.342  11.241  1.00  0.00     0.210 HD
ENDBRANCH  13  33
BRANCH   5  35
HETATM   35  C6  UNL     1      -3.036  10.014  15.629  1.00  0.00     0.010 C 
HETATM   36  C7  UNL     1      -4.417   9.597  15.097  1.00  0.00     0.012 C 
BRANCH  35  37
HETATM   37  C8  UNL     1      -2.741   9.261  16.943  1.00  0.00     0.183 C 
BRANCH  37  38
HETATM   38  O1  UNL     1      -1.785  10.032  17.695  1.00  0.00    -0.321 OA
BRANCH  38  39
HETATM   39  C9  UNL     1      -2.252  11.141  18.330  1.00  0.00     0.254 C 
HETATM   40  C10 UNL     1      -3.591  10.848  18.935  1.00  0.00     0.126 C 
HETATM   41  O2  UNL     1      -1.689  12.223  18.394  1.00  0.00    -0.266 OA
ENDBRANCH  38  39
ENDBRANCH  37  38
ENDBRANCH  35  37
ENDBRANCH   5  35
TORSDOF 14
ENDMDL
