MODEL 1
REMARK minimizedAffinity -7.40478373
REMARK CNNscore 0.592449665
REMARK CNNaffinity 7.29708481
REMARK  13 active torsions:
REMARK  status: ('A' for Active; 'I' for Inactive)
REMARK    1  A    between atoms: O1_2  and  C2_3 
REMARK    2  A    between atoms: C2_3  and  C5_6 
REMARK    3  A    between atoms: C6_7  and  C7_8 
REMARK    4  A    between atoms: C7_8  and  C8_9 
REMARK    5  A    between atoms: C8_9  and  C10_11 
REMARK    6  A    between atoms: C16_17  and  O2_18 
REMARK    7  A    between atoms: O2_18  and  C17_19 
REMARK    8  A    between atoms: C18_21  and  C19_22 
REMARK    9  A    between atoms: C19_22  and  O4_23 
REMARK   10  A    between atoms: C20_24  and  O5_25 
REMARK   11  A    between atoms: C21_26  and  O6_27 
REMARK   12  A    between atoms: C22_28  and  O7_29 
REMARK   13  A    between atoms: C32_39  and  C33_40 
ROOT
HETATM    1  C10 UNL     1       1.779  55.728  -8.628  1.00  0.00    -0.002 C 
HETATM    2  C11 UNL     1       2.666  55.897  -9.898  1.00  0.00     0.006 C 
HETATM    3  C12 UNL     1       2.419  54.673 -10.803  1.00  0.00     0.011 C 
HETATM    4  C13 UNL     1       1.166  53.990 -10.217  1.00  0.00    -0.029 C 
HETATM    5  C14 UNL     1      -0.047  54.783 -10.804  1.00  0.00     0.016 C 
HETATM    6  C15 UNL     1       1.052  52.458 -10.535  1.00  0.00     0.043 C 
HETATM    7  C16 UNL     1       0.817  52.156 -12.040  1.00  0.00     0.153 C 
HETATM    8  C23 UNL     1      -0.644  52.143 -12.389  1.00  0.00     0.009 C 
HETATM    9  C24 UNL     1      -1.567  51.566 -11.595  1.00  0.00    -0.068 C 
HETATM   10  C25 UNL     1      -1.035  50.838 -10.365  1.00  0.00     0.031 C 
HETATM   11  C26 UNL     1      -2.130  50.187  -9.494  1.00  0.00     0.010 C 
HETATM   12  C27 UNL     1      -3.449  50.943  -9.376  1.00  0.00     0.002 C 
HETATM   13  C28 UNL     1      -3.795  51.869 -10.540  1.00  0.00     0.013 C 
HETATM   14  C29 UNL     1      -3.071  51.571 -11.869  1.00  0.00    -0.024 C 
HETATM   15  C30 UNL     1      -3.517  50.223 -12.466  1.00  0.00     0.019 C 
HETATM   16  C31 UNL     1      -3.508  52.676 -12.867  1.00  0.00     0.019 C 
HETATM   17  C32 UNL     1       0.033  51.698  -9.571  1.00  0.00     0.027 C 
HETATM   18  C34 UNL     1      -0.668  52.646  -8.547  1.00  0.00     0.018 C 
HETATM   19  C35 UNL     1       0.146  53.791  -7.914  1.00  0.00     0.011 C 
HETATM   20  C36 UNL     1       1.410  54.206  -8.678  1.00  0.00    -0.032 C 
HETATM   21  C37 UNL     1       2.617  53.403  -8.102  1.00  0.00     0.016 C 
ENDROOT
BRANCH   7  22
HETATM   22  O2  UNL     1       1.295  50.852 -12.356  1.00  0.00    -0.349 OA
BRANCH  22  23
HETATM   23  C17 UNL     1       1.679  50.652 -13.714  1.00  0.00     0.292 C 
HETATM   24  O3  UNL     1       2.523  51.760 -14.057  1.00  0.00    -0.348 OA
HETATM   25  C18 UNL     1       2.940  51.736 -15.432  1.00  0.00     0.179 C 
HETATM   26  C20 UNL     1       1.706  51.943 -16.309  1.00  0.00     0.180 C 
HETATM   27  C21 UNL     1       0.722  50.795 -16.069  1.00  0.00     0.183 C 
HETATM   28  C22 UNL     1       0.401  50.609 -14.581  1.00  0.00     0.204 C 
BRANCH  25  29
HETATM   29  C19 UNL     1       3.973  52.849 -15.611  1.00  0.00     0.198 C 
BRANCH  29  30
HETATM   30  O4  UNL     1       5.064  52.351 -16.391  1.00  0.00    -0.398 OA
HETATM   31  H32 UNL     1       5.374  51.551 -15.921  1.00  0.00     0.209 HD
ENDBRANCH  29  30
ENDBRANCH  25  29
BRANCH  26  32
HETATM   32  O5  UNL     1       1.044  53.179 -15.985  1.00  0.00    -0.390 OA
HETATM   33  H34 UNL     1       1.130  53.315 -15.020  1.00  0.00     0.210 HD
ENDBRANCH  26  32
BRANCH  27  34
HETATM   34  O6  UNL     1      -0.500  51.041 -16.785  1.00  0.00    -0.390 OA
HETATM   35  H36 UNL     1      -0.641  52.010 -16.746  1.00  0.00     0.210 HD
ENDBRANCH  27  34
BRANCH  28  36
HETATM   36  O7  UNL     1      -0.275  49.347 -14.426  1.00  0.00    -0.388 OA
HETATM   37  H38 UNL     1      -1.105  49.441 -14.938  1.00  0.00     0.210 HD
ENDBRANCH  28  36
ENDBRANCH  22  23
ENDBRANCH   7  22
BRANCH  17  38
HETATM   38  C33 UNL     1       0.813  50.650  -8.757  1.00  0.00     0.241 C 
HETATM   39  O8  UNL     1       2.024  50.669  -8.560  1.00  0.00    -0.306 OA
ENDBRANCH  17  38
BRANCH   1  40
HETATM   40  C8  UNL     1       2.445  56.336  -7.356  1.00  0.00    -0.010 C 
HETATM   41  C9  UNL     1       1.622  57.495  -6.774  1.00  0.00     0.010 C 
BRANCH  40  42
HETATM   42  C7  UNL     1       3.878  56.836  -7.681  1.00  0.00     0.031 C 
BRANCH  42  43
HETATM   43  C6  UNL     1       4.814  56.765  -6.505  1.00  0.00    -0.027 C 
HETATM   44  C5  UNL     1       6.092  57.175  -6.539  1.00  0.00     0.006 C 
BRANCH  44  45
HETATM   45  C2  UNL     1       7.108  57.141  -5.412  1.00  0.00     0.070 C 
HETATM   46  C3  UNL     1       6.617  56.526  -4.091  1.00  0.00     0.050 C 
HETATM   47  C4  UNL     1       7.540  58.591  -5.133  1.00  0.00     0.050 C 
BRANCH  45  48
HETATM   48  O1  UNL     1       8.289  56.478  -5.891  1.00  0.00    -0.382 OA
HETATM   49  C1  UNL     1       8.922  55.587  -4.981  1.00  0.00     0.202 C 
ENDBRANCH  45  48
ENDBRANCH  44  45
ENDBRANCH  42  43
ENDBRANCH  40  42
ENDBRANCH   1  40
TORSDOF 13
ENDMDL
