MODEL 1
REMARK minimizedAffinity -8.63136482
REMARK CNNscore 0.620307684
REMARK CNNaffinity 7.57036591
REMARK  10 active torsions:
REMARK  status: ('A' for Active; 'I' for Inactive)
REMARK    1  A    between atoms: C2_2  and  C3_3 
REMARK    2  A    between atoms: C5_5  and  S1_6 
REMARK    3  A    between atoms: C14_18  and  C15_19 
REMARK    4  A    between atoms: C15_19  and  O4_20 
REMARK    5  A    between atoms: C21_26  and  O5_27 
REMARK    6  A    between atoms: C33_40  and  C34_41 
REMARK    7  A    between atoms: C33_40  and  N1_49 
REMARK    8  A    between atoms: C34_41  and  C35_42 
REMARK    9  A    between atoms: C35_42  and  C36_43 
REMARK   10  A    between atoms: C36_43  and  O7_44 
REMARK       I    between atoms: C41_51  and  N2_52 
REMARK       I    between atoms: C41_51  and  N3_53 
ROOT
HETATM    1  C3  UNL     1     -14.772  44.746 -24.037  1.00  0.00     0.019 C 
HETATM    2  C4  UNL     1     -15.906  45.418 -24.855  1.00  0.00     0.034 C 
HETATM    3  C5  UNL     1     -17.116  44.520 -25.189  1.00  0.00     0.157 C 
HETATM    4  C6  UNL     1     -16.859  43.383 -26.249  1.00  0.00     0.121 A 
HETATM    5  C7  UNL     1     -17.914  42.287 -26.099  1.00  0.00     0.005 C 
HETATM    6  C8  UNL     1     -18.098  41.374 -27.069  1.00  0.00    -0.048 C 
HETATM    7  C9  UNL     1     -17.103  41.318 -28.187  1.00  0.00     0.044 C 
HETATM    8  C10 UNL     1     -17.093  42.701 -28.833  1.00  0.00     0.019 C 
HETATM    9  C11 UNL     1     -18.414  43.000 -29.622  1.00  0.00     0.039 C 
HETATM   10  C12 UNL     1     -19.759  42.568 -28.987  1.00  0.00     0.123 C 
HETATM   11  C13 UNL     1     -20.961  42.827 -29.932  1.00  0.00     0.039 C 
HETATM   12  C14 UNL     1     -21.145  41.806 -31.099  1.00  0.00     0.023 C 
HETATM   13  C16 UNL     1     -22.258  40.755 -30.824  1.00  0.00     0.101 C 
HETATM   14  C17 UNL     1     -21.868  39.777 -29.803  1.00  0.00    -0.101 C 
HETATM   15  C18 UNL     1     -21.363  39.108 -28.940  1.00  0.00    -0.066 C 
HETATM   16  C19 UNL     1     -20.562  38.521 -27.903  1.00  0.00     0.029 A 
HETATM   17  C20 UNL     1     -20.718  37.153 -27.646  1.00  0.00     0.057 A 
HETATM   18  C21 UNL     1     -19.975  36.548 -26.642  1.00  0.00     0.067 A 
HETATM   19  C22 UNL     1     -19.065  37.280 -25.893  1.00  0.00     0.037 A 
HETATM   20  C23 UNL     1     -18.893  38.643 -26.150  1.00  0.00     0.014 A 
HETATM   21  C24 UNL     1     -19.621  39.292 -27.168  1.00  0.00    -0.006 A 
HETATM   22  C25 UNL     1     -19.467  40.804 -27.358  1.00  0.00     0.185 C 
HETATM   23  O6  UNL     1     -19.728  41.165 -28.721  1.00  0.00    -0.371 OA
HETATM   24  C26 UNL     1     -16.716  43.824 -27.777  1.00  0.00     0.115 A 
HETATM   25  C27 UNL     1     -15.295  44.316 -28.101  1.00  0.00    -0.035 A 
HETATM   26  C28 UNL     1     -14.207  43.437 -28.170  1.00  0.00     0.010 A 
HETATM   27  C29 UNL     1     -12.916  43.902 -28.446  1.00  0.00     0.012 A 
HETATM   28  C30 UNL     1     -12.646  45.275 -28.604  1.00  0.00    -0.003 A 
HETATM   29  C31 UNL     1     -13.751  46.147 -28.567  1.00  0.00     0.012 A 
HETATM   30  C32 UNL     1     -15.053  45.675 -28.340  1.00  0.00     0.010 A 
HETATM   31  C33 UNL     1     -11.163  45.763 -28.671  1.00  0.00     0.170 C 
HETATM   32  O8  UNL     1     -10.579  46.166 -27.364  1.00  0.00    -0.316 OA
HETATM   33  C42 UNL     1     -11.341  45.880 -26.263  1.00  0.00     0.072 C 
HETATM   34  C43 UNL     1     -11.401  44.582 -25.757  1.00  0.00     0.037 C 
HETATM   35  C44 UNL     1     -12.450  44.239 -24.906  1.00  0.00     0.010 C 
HETATM   36  C45 UNL     1     -13.411  45.200 -24.556  1.00  0.00    -0.054 C 
HETATM   37  C46 UNL     1     -13.170  46.548 -24.875  1.00  0.00     0.010 C 
HETATM   38  C47 UNL     1     -12.130  46.892 -25.733  1.00  0.00     0.037 C 
HETATM   39 NA1  UNL     1     -15.618  44.121 -28.179  1.00  0.00    -0.404 Na
ATOM     40  HA1 UNL     1     -14.854  44.416 -28.786  1.00  0.00     0.154 HD
ENDROOT
BRANCH  31  41
HETATM   41  C34 UNL     1     -11.041  47.078 -29.514  1.00  0.00     0.070 C 
BRANCH  41  42
HETATM   42  C35 UNL     1      -9.986  48.082 -29.012  1.00  0.00     0.043 C 
BRANCH  42  43
HETATM   43  C36 UNL     1      -9.004  48.526 -30.103  1.00  0.00     0.058 C 
HETATM   44  C37 UNL     1      -9.326  47.981 -31.495  1.00  0.00     0.038 C 
HETATM   45  C38 UNL     1      -8.013  48.091 -32.267  1.00  0.00     0.003 C 
HETATM   46  C39 UNL     1      -6.901  48.096 -31.219  1.00  0.00     0.003 C 
HETATM   47  C40 UNL     1      -7.593  47.983 -29.861  1.00  0.00     0.038 C 
BRANCH  43  48
HETATM   48  O7  UNL     1      -8.950  49.954 -30.166  1.00  0.00    -0.390 OA
HETATM   49  H40 UNL     1      -8.776  50.276 -29.266  1.00  0.00     0.210 HD
ENDBRANCH  43  48
ENDBRANCH  42  43
ENDBRANCH  41  42
ENDBRANCH  31  41
BRANCH  31  50
HETATM   50  N1  UNL     1     -10.370  44.772 -29.442  1.00  0.00    -0.336 N 
HETATM   51  C41 UNL     1     -10.577  44.519 -30.671  1.00  0.00     0.124 C 
HETATM   52  N2  UNL     1     -11.460  45.033 -31.547  1.00  0.00    -0.279 NA
HETATM   53  N3  UNL     1      -9.801  43.605 -31.295  1.00  0.00    -0.279 NA
HETATM   54  H49 UNL     1     -12.177  45.599 -31.091  1.00  0.00     0.126 HD
HETATM   55  H50 UNL     1     -11.886  44.327 -32.135  1.00  0.00     0.126 HD
HETATM   56  H51 UNL     1      -9.010  43.367 -30.701  1.00  0.00     0.126 HD
HETATM   57  H52 UNL     1      -9.482  43.935 -32.198  1.00  0.00     0.126 HD
ATOM     58  H1  UNL     1      -9.623  44.270 -28.962  1.00  0.00     0.165 HD
ENDBRANCH  31  50
BRANCH   1  59
HETATM   59  C2  UNL     1     -14.926  44.884 -22.506  1.00  0.00     0.005 C 
HETATM   60  C1  UNL     1     -15.713  46.092 -22.011  1.00  0.00     0.006 C 
ENDBRANCH   1  59
BRANCH   3  61
HETATM   61  S1  UNL     1     -18.536  45.596 -25.576  1.00  0.00     0.108 S 
HETATM   62  O1  UNL     1     -19.617  44.993 -24.788  1.00  0.00    -0.595 OA
HETATM   63  O2  UNL     1     -18.729  45.474 -27.015  1.00  0.00    -0.595 OA
HETATM   64  O3  UNL     1     -18.122  46.923 -25.131  1.00  0.00    -0.595 OA
ENDBRANCH   3  61
BRANCH  12  65
HETATM   65  C15 UNL     1     -21.500  42.543 -32.402  1.00  0.00     0.169 C 
BRANCH  65  66
HETATM   66  O4  UNL     1     -21.991  43.858 -32.166  1.00  0.00    -0.400 OA
HETATM   67  H23 UNL     1     -21.614  44.181 -31.332  1.00  0.00     0.209 HD
ENDBRANCH  65  66
ENDBRANCH  12  65
BRANCH  18  68
HETATM   68  O5  UNL     1     -20.176  35.218 -26.410  1.00  0.00    -0.361 OA
HETATM   69  H27 UNL     1     -19.779  34.998 -25.547  1.00  0.00     0.217 HD
ENDBRANCH  18  68
TORSDOF 10
ENDMDL
