MODEL 1
REMARK minimizedAffinity -7.22921133
REMARK CNNscore 0.625617445
REMARK CNNaffinity 6.92300463
REMARK  6 active torsions:
REMARK  status: ('A' for Active; 'I' for Inactive)
REMARK    1  A    between atoms: C4_4  and  C5_5 
REMARK    2  A    between atoms: C5_5  and  C6_6 
REMARK    3  A    between atoms: C6_6  and  C7_7 
REMARK    4  A    between atoms: C7_7  and  C9_9 
REMARK    5  A    between atoms: C24_24  and  O1_25 
REMARK    6  A    between atoms: C27_28  and  O2_29 
ROOT
HETATM    1  C9  UNL     1      -0.269  10.050  14.465  1.00  0.00    -0.002 C 
HETATM    2  C10 UNL     1       1.114   9.582  13.925  1.00  0.00     0.007 C 
HETATM    3  C11 UNL     1       0.901   8.231  13.215  1.00  0.00     0.015 C 
HETATM    4  C12 UNL     1      -0.622   8.118  13.037  1.00  0.00    -0.013 C 
HETATM    5  C13 UNL     1      -0.994   8.928  11.756  1.00  0.00     0.021 C 
HETATM    6  C14 UNL     1      -1.243   6.741  12.826  1.00  0.00    -0.065 C 
HETATM    7  C15 UNL     1      -2.527   6.514  13.207  1.00  0.00    -0.068 C 
HETATM    8  C16 UNL     1      -3.342   7.580  13.946  1.00  0.00     0.036 C 
HETATM    9  C17 UNL     1      -2.639   8.912  14.289  1.00  0.00     0.015 C 
HETATM   10  C18 UNL     1      -1.119   8.743  14.396  1.00  0.00    -0.029 C 
HETATM   11  C19 UNL     1      -0.803   7.853  15.638  1.00  0.00     0.016 C 
HETATM   12  C20 UNL     1      -3.213   5.151  12.970  1.00  0.00    -0.014 C 
HETATM   13  C21 UNL     1      -3.059   4.341  14.282  1.00  0.00     0.020 C 
HETATM   14  C22 UNL     1      -4.725   5.296  12.637  1.00  0.00     0.016 C 
HETATM   15  C23 UNL     1      -5.401   3.972  12.281  1.00  0.00     0.033 C 
HETATM   16  C24 UNL     1      -4.686   3.251  11.145  1.00  0.00     0.118 C 
HETATM   17  C25 UNL     1      -3.191   3.092  11.408  1.00  0.00     0.039 C 
HETATM   18  C26 UNL     1      -2.540   4.442  11.751  1.00  0.00     0.029 C 
HETATM   19  C27 UNL     1      -1.024   4.324  11.948  1.00  0.00     0.127 C 
HETATM   20  C28 UNL     1      -0.383   5.706  12.135  1.00  0.00     0.067 C 
ENDROOT
BRANCH   1  21
HETATM   21  C7  UNL     1      -0.143  10.814  15.813  1.00  0.00    -0.014 C 
HETATM   22  C8  UNL     1       0.905  10.196  16.746  1.00  0.00     0.010 C 
BRANCH  21  23
HETATM   23  C6  UNL     1      -1.494  10.946  16.565  1.00  0.00     0.008 C 
BRANCH  23  24
HETATM   24  C5  UNL     1      -1.602  12.147  17.511  1.00  0.00     0.028 C 
BRANCH  24  25
HETATM   25  C4  UNL     1      -2.929  12.147  18.224  1.00  0.00    -0.025 C 
HETATM   26  C2  UNL     1      -3.424  13.086  19.055  1.00  0.00    -0.091 C 
HETATM   27  C1  UNL     1      -4.776  12.904  19.694  1.00  0.00     0.042 C 
HETATM   28  C3  UNL     1      -2.735  14.371  19.429  1.00  0.00     0.042 C 
ENDBRANCH  24  25
ENDBRANCH  23  24
ENDBRANCH  21  23
ENDBRANCH   1  21
BRANCH  19  29
HETATM   29  O2  UNL     1      -0.419   3.680  10.824  1.00  0.00    -0.395 OA
HETATM   30  H44 UNL     1      -0.649   4.189  10.028  1.00  0.00     0.210 HD
ENDBRANCH  19  29
BRANCH  16  31
HETATM   31  O1  UNL     1      -5.279   1.973  10.944  1.00  0.00    -0.396 OA
HETATM   32  H39 UNL     1      -5.163   1.456  11.759  1.00  0.00     0.210 HD
ENDBRANCH  16  31
TORSDOF 6
ENDMDL
