MODEL 1
REMARK minimizedAffinity -9.04856396
REMARK  4 active torsions:
REMARK  status: ('A' for Active; 'I' for Inactive)
REMARK    1  A    between atoms: C2_2  and  C3_3 
REMARK    2  A    between atoms: C2_2  and  C9_9 
REMARK    3  A    between atoms: C3_3  and  C4_4 
REMARK    4  A    between atoms: C4_4  and  C5_5 
ROOT
HETATM    1  C9  UNL     1      -3.456   7.415  14.838  1.00  0.00     0.018 C 
HETATM    2  C10 UNL     1      -3.422   5.881  15.144  1.00  0.00     0.010 C 
HETATM    3  C11 UNL     1      -2.494   5.229  14.107  1.00  0.00     0.011 C 
HETATM    4  C12 UNL     1      -1.520   6.345  13.708  1.00  0.00    -0.032 C 
HETATM    5  C13 UNL     1      -0.535   6.537  14.915  1.00  0.00     0.016 C 
HETATM    6  C14 UNL     1      -2.525   7.531  13.593  1.00  0.00     0.002 C 
HETATM    7  C15 UNL     1      -1.752   8.828  13.362  1.00  0.00     0.006 C 
HETATM    8  C16 UNL     1      -0.933   8.736  12.065  1.00  0.00     0.006 C 
HETATM    9  C17 UNL     1       0.009   7.503  11.986  1.00  0.00     0.003 C 
HETATM   10  C18 UNL     1       0.965   7.484  10.698  1.00  0.00    -0.035 C 
HETATM   11  C19 UNL     1       0.220   8.041   9.462  1.00  0.00     0.016 C 
HETATM   12  C20 UNL     1       2.147   8.449  11.032  1.00  0.00     0.017 C 
HETATM   13  C21 UNL     1       3.292   8.437  10.040  1.00  0.00     0.080 C 
HETATM   14  C22 UNL     1       3.831   7.036   9.891  1.00  0.00     0.135 C 
HETATM   15  O1  UNL     1       5.042   6.822   9.993  1.00  0.00    -0.297 OA
HETATM   16  C23 UNL     1       2.834   5.940   9.511  1.00  0.00     0.017 C 
HETATM   17  C24 UNL     1       3.533   4.564   9.634  1.00  0.00     0.023 C 
HETATM   18  C25 UNL     1       2.514   6.103   8.007  1.00  0.00     0.023 C 
HETATM   19  C26 UNL     1       1.529   6.026  10.409  1.00  0.00     0.009 C 
HETATM   20  C27 UNL     1       1.656   5.278  11.754  1.00  0.00     0.007 C 
HETATM   21  C28 UNL     1       0.302   5.003  12.422  1.00  0.00     0.011 C 
HETATM   22  C29 UNL     1      -0.737   6.156  12.322  1.00  0.00    -0.032 C 
HETATM   23  C30 UNL     1      -1.727   5.786  11.179  1.00  0.00     0.016 C 
ENDROOT
BRANCH   1  24
HETATM   24  C2  UNL     1      -4.861   8.031  14.720  1.00  0.00    -0.084 C 
HETATM   25  C1  UNL     1      -5.250   9.152  15.360  1.00  0.00     0.014 C 
BRANCH  24  26
HETATM   26  C3  UNL     1      -5.867   7.383  13.782  1.00  0.00     0.037 C 
BRANCH  26  27
HETATM   27  C4  UNL     1      -5.336   6.095  13.146  1.00  0.00     0.031 C 
BRANCH  27  28
HETATM   28  C5  UNL     1      -6.376   5.004  13.159  1.00  0.00    -0.024 C 
HETATM   29  C6  UNL     1      -6.267   3.751  12.679  1.00  0.00    -0.091 C 
HETATM   30  C7  UNL     1      -5.056   3.194  11.982  1.00  0.00     0.042 C 
HETATM   31  C8  UNL     1      -7.412   2.781  12.799  1.00  0.00     0.042 C 
ENDBRANCH  27  28
ENDBRANCH  26  27
ENDBRANCH  24  26
ENDBRANCH   1  24
TORSDOF 4
ENDMDL
