MODEL 1
REMARK minimizedAffinity -8.99201965
REMARK CNNscore 0.430859566
REMARK CNNaffinity 7.09414339
REMARK  12 active torsions:
REMARK  status: ('A' for Active; 'I' for Inactive)
REMARK    1  A    between atoms: C3_3  and  O1_4 
REMARK    2  A    between atoms: N1_14  and  O2_16 
REMARK    3  A    between atoms: O2_16  and  C13_17 
REMARK    4  A    between atoms: C13_17  and  C14_18 
REMARK       I    between atoms: C14_18  and  N2_20 
REMARK    5  A    between atoms: N2_20  and  C15_21 
REMARK    6  A    between atoms: C15_21  and  C16_22 
REMARK    7  A    between atoms: C15_21  and  C23_33 
REMARK       I    between atoms: C16_22  and  N3_24 
REMARK    8  A    between atoms: N3_24  and  C17_25 
REMARK    9  A    between atoms: C17_25  and  C18_26 
REMARK   10  A    between atoms: C17_25  and  C19_29 
REMARK   11  A    between atoms: C18_26  and  O6_28 
REMARK   12  A    between atoms: C19_29  and  C21_31 
ROOT
HETATM    1  C1  UNL     1      -7.701  49.844 -23.306  1.00  0.00     0.015 C 
HETATM    2  C2  UNL     1      -6.515  49.658 -23.209  1.00  0.00    -0.078 C 
HETATM    3  C3  UNL     1      -5.064  49.431 -23.079  1.00  0.00     0.128 C 
HETATM    4  C4  UNL     1      -4.548  48.550 -24.227  1.00  0.00     0.052 C 
HETATM    5  C5  UNL     1      -3.050  48.855 -24.343  1.00  0.00     0.010 C 
HETATM    6  C6  UNL     1      -2.783  50.157 -23.555  1.00  0.00     0.002 C 
HETATM    7  C7  UNL     1      -1.693  50.074 -22.442  1.00  0.00    -0.004 C 
HETATM    8  C8  UNL     1      -1.609  48.772 -21.609  1.00  0.00     0.010 C 
HETATM    9  C9  UNL     1      -0.428  48.781 -20.638  1.00  0.00     0.035 C 
HETATM   10  C10 UNL     1      -0.396  50.008 -19.763  1.00  0.00    -0.069 C 
HETATM   11  C11 UNL     1      -0.210  49.880 -18.433  1.00  0.00     0.030 C 
HETATM   12  C12 UNL     1      -0.092  51.067 -17.548  1.00  0.00     0.032 C 
HETATM   13  N1  UNL     1      -0.225  50.884 -16.266  1.00  0.00    -0.271 N 
ATOM     14  H1  UNL     1      -0.364  49.971 -15.832  1.00  0.00     0.194 HD
HETATM   15  C26 UNL     1       0.185  52.394 -18.224  1.00  0.00     0.060 C 
HETATM   16  C27 UNL     1      -0.740  52.506 -19.435  1.00  0.00     0.020 C 
HETATM   17  C28 UNL     1      -0.555  51.353 -20.471  1.00  0.00    -0.016 C 
HETATM   18  C29 UNL     1       0.760  51.640 -21.247  1.00  0.00     0.020 C 
HETATM   19  C30 UNL     1      -1.756  51.316 -21.503  1.00  0.00     0.002 C 
HETATM   20  C31 UNL     1      -3.170  51.366 -20.883  1.00  0.00     0.007 C 
HETATM   21  C32 UNL     1      -4.226  51.628 -21.951  1.00  0.00     0.014 C 
HETATM   22  C33 UNL     1      -4.195  50.721 -23.196  1.00  0.00     0.003 C 
HETATM   23  C34 UNL     1      -4.678  51.602 -24.394  1.00  0.00     0.020 C 
ENDROOT
BRANCH   3  24
HETATM   24  O1  UNL     1      -4.858  48.789 -21.827  1.00  0.00    -0.377 OA
HETATM   25  H2  UNL     1      -4.271  48.020 -21.955  1.00  0.00     0.211 HD
ENDBRANCH   3  24
BRANCH  13  26
HETATM   26  O2  UNL     1      -0.156  52.089 -15.554  1.00  0.00    -0.271 OA
BRANCH  26  27
HETATM   27  C13 UNL     1       0.730  51.912 -14.454  1.00  0.00     0.303 C 
BRANCH  27  28
HETATM   28  C14 UNL     1      -0.024  51.775 -13.137  1.00  0.00     0.244 C 
HETATM   29  O3  UNL     1      -0.128  50.697 -12.551  1.00  0.00    -0.271 OA
HETATM   30  N2  UNL     1      -0.550  52.951 -12.637  1.00  0.00    -0.346 N 
HETATM   31  H16 UNL     1      -0.121  53.800 -12.992  1.00  0.00     0.163 HD
BRANCH  30  32
HETATM   32  C15 UNL     1      -1.089  53.001 -11.278  1.00  0.00     0.180 C 
BRANCH  32  33
HETATM   33  C16 UNL     1      -0.570  54.297 -10.610  1.00  0.00     0.241 C 
HETATM   34  O4  UNL     1      -1.168  55.370 -10.695  1.00  0.00    -0.271 OA
HETATM   35  N3  UNL     1       0.609  54.156  -9.904  1.00  0.00    -0.344 N 
HETATM   36  H18 UNL     1       0.861  53.216  -9.621  1.00  0.00     0.163 HD
BRANCH  35  37
HETATM   37  C17 UNL     1       1.150  55.253  -9.097  1.00  0.00     0.186 C 
BRANCH  37  38
HETATM   38  C18 UNL     1       0.472  55.234  -7.722  1.00  0.00     0.163 C 
HETATM   39  O5  UNL     1      -0.403  55.994  -7.327  1.00  0.00    -0.648 OA
BRANCH  38  40
HETATM   40  O6  UNL     1       0.908  54.231  -6.933  1.00  0.00    -0.775 OA
HETATM   41  H20 UNL     1       0.421  54.354  -6.095  1.00  0.00     0.167 HD
ENDBRANCH  38  40
ENDBRANCH  37  38
BRANCH  37  42
HETATM   42  C19 UNL     1       2.692  55.177  -8.964  1.00  0.00     0.014 C 
HETATM   43  C20 UNL     1       3.309  54.078  -9.847  1.00  0.00     0.012 C 
BRANCH  42  44
HETATM   44  C21 UNL     1       3.377  56.525  -9.276  1.00  0.00     0.002 C 
HETATM   45  C22 UNL     1       3.840  57.270  -8.035  1.00  0.00     0.005 C 
ENDBRANCH  42  44
ENDBRANCH  37  42
ENDBRANCH  35  37
ENDBRANCH  32  33
BRANCH  32  46
HETATM   46  C23 UNL     1      -2.630  52.884 -11.305  1.00  0.00     0.009 C 
HETATM   47  C24 UNL     1      -3.111  51.524 -10.794  1.00  0.00     0.012 C 
HETATM   48  C25 UNL     1      -3.344  54.009 -10.550  1.00  0.00     0.012 C 
ENDBRANCH  32  46
ENDBRANCH  30  32
ENDBRANCH  27  28
ENDBRANCH  26  27
ENDBRANCH  13  26
TORSDOF 12
ENDMDL
