MODEL 1
REMARK minimizedAffinity -8.58377361
REMARK CNNscore 0.781395078
REMARK CNNaffinity 6.48552704
REMARK  8 active torsions:
REMARK  status: ('A' for Active; 'I' for Inactive)
REMARK    1  A    between atoms: C2_2  and  C33_38 
REMARK    2  A    between atoms: C3_3  and  C4_4 
REMARK    3  A    between atoms: C4_4  and  O1_5 
REMARK    4  A    between atoms: C4_4  and  C5_6 
REMARK    5  A    between atoms: C5_6  and  C6_7 
REMARK    6  A    between atoms: C15_17  and  O3_18 
REMARK    7  A    between atoms: C28_32  and  O5_33 
REMARK    8  A    between atoms: C33_38  and  O7_40 
ROOT
HETATM    1  C6  UNL     1       0.646  54.699  -8.850  1.00  0.00    -0.007 C 
HETATM    2  C7  UNL     1       1.465  54.423 -10.132  1.00  0.00     0.005 C 
HETATM    3  C8  UNL     1       1.909  55.636 -10.957  1.00  0.00     0.000 C 
HETATM    4  C9  UNL     1       3.385  56.012 -10.817  1.00  0.00     0.001 C 
HETATM    5  C10 UNL     1       3.756  56.673  -9.486  1.00  0.00     0.013 C 
HETATM    6  C11 UNL     1       3.873  55.676  -8.315  1.00  0.00     0.070 C 
HETATM    7  C12 UNL     1       5.196  55.900  -7.562  1.00  0.00     0.161 C 
HETATM    8  O2  UNL     1       6.247  55.826  -8.203  1.00  0.00    -0.292 OA
HETATM    9  C13 UNL     1       5.220  56.159  -6.064  1.00  0.00     0.003 C 
HETATM   10  C14 UNL     1       4.062  56.519  -5.441  1.00  0.00    -0.029 C 
HETATM   11  C15 UNL     1       4.075  56.735  -3.944  1.00  0.00     0.149 C 
HETATM   12  C16 UNL     1       5.347  57.441  -3.501  1.00  0.00     0.043 C 
HETATM   13  C17 UNL     1       6.674  56.836  -3.997  1.00  0.00     0.016 C 
HETATM   14  C18 UNL     1       7.785  57.948  -4.112  1.00  0.00     0.018 C 
HETATM   15  C19 UNL     1       7.470  59.039  -5.154  1.00  0.00     0.023 C 
HETATM   16  C20 UNL     1       7.989  58.639  -2.742  1.00  0.00     0.023 C 
HETATM   17  C21 UNL     1       9.129  57.305  -4.484  1.00  0.00     0.135 C 
HETATM   18  O4  UNL     1      10.209  57.814  -4.181  1.00  0.00    -0.297 OA
HETATM   19  C22 UNL     1       9.098  55.994  -5.223  1.00  0.00     0.080 C 
HETATM   20  C23 UNL     1       7.847  55.908  -6.082  1.00  0.00     0.022 C 
HETATM   21  C24 UNL     1       6.522  55.887  -5.259  1.00  0.00    -0.008 C 
HETATM   22  C25 UNL     1       6.365  54.420  -4.747  1.00  0.00     0.021 C 
HETATM   23  C26 UNL     1       2.756  56.690  -6.233  1.00  0.00     0.017 C 
HETATM   24  C27 UNL     1       2.802  58.156  -6.753  1.00  0.00     0.023 C 
HETATM   25  C28 UNL     1       1.380  56.450  -5.530  1.00  0.00     0.132 C 
HETATM   26  C29 UNL     1       0.405  56.027  -6.642  1.00  0.00     0.038 C 
HETATM   27  C30 UNL     1       1.245  55.787  -7.921  1.00  0.00     0.002 C 
HETATM   28  C31 UNL     1       2.681  55.566  -7.344  1.00  0.00    -0.016 C 
HETATM   29  C32 UNL     1       2.755  54.120  -6.720  1.00  0.00     0.018 C 
ENDROOT
BRANCH   1  30
HETATM   30  C5  UNL     1      -0.875  54.867  -9.163  1.00  0.00     0.040 C 
BRANCH  30  31
HETATM   31  C4  UNL     1      -1.725  53.607  -9.372  1.00  0.00     0.142 C 
BRANCH  31  32
HETATM   32  C3  UNL     1      -2.136  53.455 -10.815  1.00  0.00     0.018 C 
HETATM   33  C2  UNL     1      -3.201  52.807 -11.337  1.00  0.00     0.010 C 
HETATM   34  C1  UNL     1      -4.195  51.993 -10.560  1.00  0.00     0.055 C 
BRANCH  33  35
HETATM   35  C33 UNL     1      -3.454  52.828 -12.802  1.00  0.00     0.171 C 
HETATM   36  O6  UNL     1      -3.009  52.030 -13.608  1.00  0.00    -0.646 OA
BRANCH  35  37
HETATM   37  O7  UNL     1      -4.256  53.828 -13.204  1.00  0.00    -0.773 OA
HETATM   38  H48 UNL     1      -4.319  53.691 -14.172  1.00  0.00     0.167 HD
ENDBRANCH  35  37
ENDBRANCH  33  35
ENDBRANCH  31  32
BRANCH  31  39
HETATM   39  O1  UNL     1      -1.045  52.447  -8.930  1.00  0.00    -0.392 OA
HETATM   40  H6  UNL     1      -1.592  51.681  -9.172  1.00  0.00     0.210 HD
ENDBRANCH  31  39
ENDBRANCH  30  31
ENDBRANCH   1  30
BRANCH  25  41
HETATM   41  O5  UNL     1       0.844  57.590  -4.873  1.00  0.00    -0.394 OA
HETATM   42  H41 UNL     1       1.556  57.886  -4.265  1.00  0.00     0.210 HD
ENDBRANCH  25  41
BRANCH  11  43
HETATM   43  O3  UNL     1       3.003  57.574  -3.523  1.00  0.00    -0.391 OA
HETATM   44  H20 UNL     1       3.061  57.643  -2.552  1.00  0.00     0.210 HD
ENDBRANCH  11  43
TORSDOF 8
ENDMDL
