MODEL 1
REMARK minimizedAffinity -6.89365005
REMARK CNNscore 0.375429779
REMARK CNNaffinity 6.4191494
REMARK  7 active torsions:
REMARK  status: ('A' for Active; 'I' for Inactive)
REMARK    1  A    between atoms: C3_3  and  C5_5 
REMARK    2  A    between atoms: C24_26  and  O3_27 
REMARK    3  A    between atoms: C30_35  and  O6_36 
REMARK    4  A    between atoms: C31_38  and  O8_39 
REMARK    5  A    between atoms: C32_40  and  O9_41 
REMARK    6  A    between atoms: O9_41  and  C33_42 
REMARK    7  A    between atoms: C33_42  and  C34_44 
ROOT
HETATM    1  C5  UNL     1       1.627   7.763  13.110  1.00  0.00     0.160 C 
HETATM    2  O1  UNL     1       1.731   9.061  13.705  1.00  0.00    -0.342 OA
HETATM    3  C6  UNL     1       2.129   9.027  15.080  1.00  0.00     0.196 C 
HETATM    4  C7  UNL     1       1.675  10.372  15.696  1.00  0.00     0.104 C 
HETATM    5  C8  UNL     1       2.600  10.816  16.825  1.00  0.00     0.139 C 
HETATM    6  C9  UNL     1       4.058  10.864  16.350  1.00  0.00     0.065 C 
HETATM    7  C10 UNL     1       4.241  10.130  15.021  1.00  0.00     0.131 C 
HETATM    8  C11 UNL     1       5.720   9.933  14.650  1.00  0.00     0.059 C 
HETATM    9  C12 UNL     1       6.359  11.275  14.394  1.00  0.00    -0.022 C 
HETATM   10  C13 UNL     1       6.398  11.943  13.221  1.00  0.00    -0.087 C 
HETATM   11  C14 UNL     1       5.970  11.354  11.905  1.00  0.00     0.043 C 
HETATM   12  C15 UNL     1       6.844  13.399  13.202  1.00  0.00     0.041 C 
HETATM   13  C16 UNL     1       5.744  14.471  12.947  1.00  0.00     0.008 C 
HETATM   14  C17 UNL     1       5.505  14.708  11.454  1.00  0.00     0.014 C 
HETATM   15  C18 UNL     1       4.428  14.167  13.634  1.00  0.00    -0.022 C 
HETATM   16  C19 UNL     1       3.914  14.864  14.660  1.00  0.00    -0.003 C 
HETATM   17  C20 UNL     1       2.660  14.492  15.280  1.00  0.00     0.008 C 
HETATM   18  C21 UNL     1       2.100  15.093  16.346  1.00  0.00    -0.019 C 
HETATM   19  C22 UNL     1       2.584  16.337  17.036  1.00  0.00     0.206 C 
HETATM   20  O2  UNL     1       1.492  16.780  17.872  1.00  0.00    -0.375 OA
HETATM   21  C23 UNL     1       0.316  16.124  17.336  1.00  0.00     0.194 C 
HETATM   22  C24 UNL     1      -0.868  16.191  18.315  1.00  0.00     0.179 C 
HETATM   23  C25 UNL     1      -0.905  15.102  19.356  1.00  0.00    -0.056 C 
HETATM   24  C26 UNL     1      -1.967  15.225  20.416  1.00  0.00     0.046 C 
HETATM   25  C27 UNL     1      -0.058  14.058  19.335  1.00  0.00    -0.004 C 
HETATM   26  C28 UNL     1       1.017  13.856  18.289  1.00  0.00     0.150 C 
HETATM   27  C29 UNL     1       1.144  12.368  17.951  1.00  0.00     0.270 C 
HETATM   28  O4  UNL     1       0.360  11.488  18.279  1.00  0.00    -0.264 OA
HETATM   29  O5  UNL     1       2.293  12.155  17.260  1.00  0.00    -0.315 OA
HETATM   30  C30 UNL     1       0.790  14.706  17.004  1.00  0.00     0.128 C 
HETATM   31  O7  UNL     1       3.570   8.874  15.149  1.00  0.00    -0.347 OA
HETATM   32  C31 UNL     1       1.510   7.811  15.840  1.00  0.00     0.210 C 
HETATM   33  C32 UNL     1       0.197   7.353  15.188  1.00  0.00     0.172 C 
HETATM   34  C37 UNL     1       0.374   7.052  13.675  1.00  0.00     0.047 C 
HETATM   35  C38 UNL     1       0.428   5.542  13.421  1.00  0.00     0.015 C 
ENDROOT
BRANCH  32  36
HETATM   36  O8  UNL     1       2.425   6.696  15.839  1.00  0.00    -0.387 OA
HETATM   37  H42 UNL     1       3.315   7.097  15.767  1.00  0.00     0.210 HD
ENDBRANCH  32  36
BRANCH   1  38
HETATM   38  C3  UNL     1       1.592   7.945  11.591  1.00  0.00    -0.059 C 
HETATM   39  C2  UNL     1       0.445   8.238  10.943  1.00  0.00    -0.026 C 
HETATM   40  C1  UNL     1       0.230   8.457   9.480  1.00  0.00     0.036 C 
HETATM   41  C4  UNL     1       2.931   7.834  10.906  1.00  0.00     0.046 C 
ENDBRANCH   1  38
BRANCH  33  42
HETATM   42  O9  UNL     1      -0.785   8.401  15.354  1.00  0.00    -0.312 OA
BRANCH  42  43
HETATM   43  C33 UNL     1      -2.065   8.096  14.993  1.00  0.00     0.262 C 
HETATM   44  O10 UNL     1      -2.675   7.100  15.360  1.00  0.00    -0.265 OA
BRANCH  43  45
HETATM   45  C34 UNL     1      -2.608   9.144  14.033  1.00  0.00     0.077 C 
HETATM   46  C35 UNL     1      -1.634  10.317  13.915  1.00  0.00     0.020 C 
HETATM   47  C36 UNL     1      -2.884   8.543  12.659  1.00  0.00     0.020 C 
ENDBRANCH  43  45
ENDBRANCH  42  43
ENDBRANCH  33  42
BRANCH  30  48
HETATM   48  O6  UNL     1      -0.100  14.079  16.085  1.00  0.00    -0.381 OA
HETATM   49  H40 UNL     1      -0.918  13.848  16.564  1.00  0.00     0.211 HD
ENDBRANCH  30  48
BRANCH  22  50
HETATM   50  O3  UNL     1      -0.868  17.458  18.968  1.00  0.00    -0.389 OA
HETATM   51  H34 UNL     1       0.076  17.688  19.086  1.00  0.00     0.210 HD
ENDBRANCH  22  50
TORSDOF 7
ENDMDL
