MODEL 1
REMARK minimizedAffinity -9.95997334
REMARK  11 active torsions:
REMARK  status: ('A' for Active; 'I' for Inactive)
REMARK    1  A    between atoms: C2_2  and  C27_32 
REMARK    2  A    between atoms: C3_3  and  C4_4 
REMARK    3  A    between atoms: C4_4  and  C5_5 
REMARK    4  A    between atoms: C5_5  and  C6_6 
REMARK    5  A    between atoms: C6_6  and  C8_8 
REMARK    6  A    between atoms: C10_10  and  O1_11 
REMARK    7  A    between atoms: C11_12  and  O2_13 
REMARK    8  A    between atoms: C21_23  and  O3_24 
REMARK    9  A    between atoms: C24_27  and  O4_28 
REMARK   10  A    between atoms: C26_30  and  O5_31 
REMARK   11  A    between atoms: C27_32  and  O6_33 
ROOT
HETATM    1  C8  UNL     1      -2.825   7.292  12.883  1.00  0.00     0.003 C 
HETATM    2  C9  UNL     1      -2.319   8.720  13.109  1.00  0.00     0.041 C 
HETATM    3  C10 UNL     1      -0.834   8.600  12.799  1.00  0.00     0.156 C 
HETATM    4  C11 UNL     1      -0.410   7.336  13.583  1.00  0.00     0.122 C 
HETATM    5  C12 UNL     1      -1.691   6.378  13.509  1.00  0.00    -0.003 C 
HETATM    6  C13 UNL     1      -2.037   5.830  14.904  1.00  0.00     0.019 C 
HETATM    7  C14 UNL     1      -1.442   5.172  12.567  1.00  0.00     0.013 C 
HETATM    8  C15 UNL     1      -0.572   5.527  11.365  1.00  0.00     0.009 C 
HETATM    9  C16 UNL     1       0.866   5.948  11.741  1.00  0.00     0.032 C 
HETATM   10  C17 UNL     1       1.690   6.545  10.512  1.00  0.00    -0.031 C 
HETATM   11  C18 UNL     1       2.640   5.395  10.045  1.00  0.00     0.016 C 
HETATM   12  C19 UNL     1       0.828   6.950   9.278  1.00  0.00     0.012 C 
HETATM   13  C20 UNL     1       1.640   7.544   8.122  1.00  0.00     0.032 C 
HETATM   14  C21 UNL     1       2.545   8.691   8.560  1.00  0.00     0.118 C 
HETATM   15  C22 UNL     1       3.383   8.347   9.792  1.00  0.00     0.039 C 
HETATM   16  C23 UNL     1       2.489   7.813  10.922  1.00  0.00     0.025 C 
HETATM   17  C24 UNL     1       3.212   7.591  12.248  1.00  0.00     0.126 C 
HETATM   18  C25 UNL     1       2.169   7.604  13.357  1.00  0.00     0.073 C 
HETATM   19  C26 UNL     1       0.947   6.679  13.131  1.00  0.00     0.099 C 
ENDROOT
BRANCH   1  20
HETATM   20  C6  UNL     1      -4.351   7.160  13.184  1.00  0.00    -0.013 C 
HETATM   21  C7  UNL     1      -5.036   8.354  13.843  1.00  0.00     0.010 C 
BRANCH  20  22
HETATM   22  C5  UNL     1      -4.774   5.776  13.747  1.00  0.00     0.008 C 
BRANCH  22  23
HETATM   23  C4  UNL     1      -6.022   5.069  13.208  1.00  0.00     0.028 C 
BRANCH  23  24
HETATM   24  C3  UNL     1      -5.747   3.922  12.277  1.00  0.00    -0.022 C 
HETATM   25  C2  UNL     1      -6.402   2.744  12.215  1.00  0.00    -0.064 C 
HETATM   26  C1  UNL     1      -6.008   1.703  11.199  1.00  0.00     0.045 C 
BRANCH  25  27
HETATM   27  C27 UNL     1      -7.553   2.350  13.102  1.00  0.00     0.197 C 
BRANCH  27  28
HETATM   28  O6  UNL     1      -8.645   3.224  12.857  1.00  0.00    -0.397 OA
HETATM   29  H46 UNL     1      -8.837   3.165  11.905  1.00  0.00     0.209 HD
ENDBRANCH  27  28
ENDBRANCH  25  27
ENDBRANCH  23  24
ENDBRANCH  22  23
ENDBRANCH  20  22
ENDBRANCH   1  20
BRANCH   3  30
HETATM   30  O1  UNL     1      -0.176   9.777  13.239  1.00  0.00    -0.392 OA
HETATM   31  H17 UNL     1      -0.110   9.675  14.212  1.00  0.00     0.210 HD
ENDBRANCH   3  30
BRANCH   4  32
HETATM   32  O2  UNL     1      -0.224   7.784  14.956  1.00  0.00    -0.383 OA
HETATM   33  H18 UNL     1       0.331   7.090  15.372  1.00  0.00     0.210 HD
ENDBRANCH   4  32
BRANCH  19  34
HETATM   34  O5  UNL     1       1.190   5.651  14.154  1.00  0.00    -0.386 OA
HETATM   35  H43 UNL     1       0.784   4.811  13.889  1.00  0.00     0.210 HD
ENDBRANCH  19  34
BRANCH  17  36
HETATM   36  O4  UNL     1       4.143   8.645  12.485  1.00  0.00    -0.395 OA
HETATM   37  H40 UNL     1       4.523   8.510  13.370  1.00  0.00     0.210 HD
ENDBRANCH  17  36
BRANCH  14  38
HETATM   38  O3  UNL     1       3.401   9.034   7.476  1.00  0.00    -0.396 OA
HETATM   39  H35 UNL     1       3.954   9.780   7.770  1.00  0.00     0.210 HD
ENDBRANCH  14  38
TORSDOF 11
ENDMDL
