MODEL 1
REMARK minimizedAffinity -10.0737858
REMARK  10 active torsions:
REMARK  status: ('A' for Active; 'I' for Inactive)
REMARK    1  A    between atoms: C11_11  and  O1_12 
REMARK    2  A    between atoms: C12_13  and  C14_15 
REMARK    3  A    between atoms: C14_15  and  C15_16 
REMARK    4  A    between atoms: C15_16  and  O2_17 
REMARK    5  A    between atoms: C15_16  and  C16_18 
REMARK    6  A    between atoms: C16_18  and  O3_19 
REMARK    7  A    between atoms: C16_18  and  C17_20 
REMARK    8  A    between atoms: C17_20  and  O4_22 
REMARK    9  A    between atoms: C17_20  and  C19_23 
REMARK   10  A    between atoms: C19_23  and  O5_24 
ROOT
HETATM    1  C1  UNL     1       1.515  52.094 -27.547  1.00  0.00     0.015 C 
HETATM    2  C2  UNL     1       1.257  51.432 -26.199  1.00  0.00     0.019 C 
HETATM    3  C3  UNL     1       1.424  52.431 -25.025  1.00  0.00     0.048 C 
HETATM    4  C4  UNL     1       0.312  52.063 -24.083  1.00  0.00    -0.043 C 
HETATM    5  C5  UNL     1      -0.535  51.208 -24.665  1.00  0.00    -0.040 C 
HETATM    6  C6  UNL     1      -0.138  50.892 -26.002  1.00  0.00    -0.050 C 
HETATM    7  C7  UNL     1      -0.971  50.291 -26.857  1.00  0.00    -0.009 C 
HETATM    8  C8  UNL     1      -2.426  50.015 -26.525  1.00  0.00    -0.018 C 
HETATM    9  C9  UNL     1      -3.235  50.895 -27.513  1.00  0.00     0.020 C 
HETATM   10  C10 UNL     1      -2.757  48.530 -26.710  1.00  0.00     0.046 C 
HETATM   11  C11 UNL     1      -4.065  48.322 -25.954  1.00  0.00     0.128 C 
HETATM   12  C12 UNL     1      -3.922  49.174 -24.658  1.00  0.00    -0.010 C 
HETATM   13  C13 UNL     1      -3.404  48.221 -23.557  1.00  0.00     0.018 C 
HETATM   14  C20 UNL     1      -2.887  50.329 -25.053  1.00  0.00     0.017 C 
HETATM   15  C21 UNL     1      -1.729  50.569 -24.039  1.00  0.00     0.026 C 
HETATM   16  C22 UNL     1      -2.166  51.432 -22.835  1.00  0.00     0.014 C 
HETATM   17  C23 UNL     1      -0.968  51.819 -21.948  1.00  0.00     0.040 C 
HETATM   18  C24 UNL     1       0.143  52.521 -22.717  1.00  0.00    -0.040 C 
HETATM   19  C25 UNL     1       0.919  53.484 -22.197  1.00  0.00     0.092 C 
HETATM   20 CL1  UNL     1       0.824  54.079 -20.592  1.00  0.00    -0.096 Cl
ENDROOT
BRANCH  12  21
HETATM   21  C14 UNL     1      -5.249  49.844 -24.187  1.00  0.00     0.046 C 
BRANCH  21  22
HETATM   22  C15 UNL     1      -6.395  48.913 -23.728  1.00  0.00     0.150 C 
BRANCH  22  23
HETATM   23  O2  UNL     1      -7.292  48.644 -24.797  1.00  0.00    -0.393 OA
HETATM   24  H21 UNL     1      -7.373  49.477 -25.312  1.00  0.00     0.210 HD
ENDBRANCH  22  23
BRANCH  22  25
HETATM   25  C16 UNL     1      -7.145  49.519 -22.515  1.00  0.00     0.182 C 
BRANCH  25  26
HETATM   26  O3  UNL     1      -7.145  50.960 -22.639  1.00  0.00    -0.390 OA
HETATM   27  H23 UNL     1      -7.985  51.251 -22.237  1.00  0.00     0.210 HD
ENDBRANCH  25  26
BRANCH  25  28
HETATM   28  C17 UNL     1      -6.569  49.151 -21.116  1.00  0.00     0.103 C 
HETATM   29  C18 UNL     1      -7.638  49.115 -20.016  1.00  0.00     0.051 C 
BRANCH  28  30
HETATM   30  O4  UNL     1      -6.054  47.796 -21.215  1.00  0.00    -0.385 OA
HETATM   31  H27 UNL     1      -6.825  47.238 -21.422  1.00  0.00     0.210 HD
ENDBRANCH  28  30
BRANCH  28  32
HETATM   32  C19 UNL     1      -5.400  50.056 -20.674  1.00  0.00     0.204 C 
BRANCH  32  33
HETATM   33  O5  UNL     1      -5.550  51.391 -21.163  1.00  0.00    -0.398 OA
HETATM   34  H30 UNL     1      -4.705  51.843 -20.994  1.00  0.00     0.209 HD
ENDBRANCH  32  33
ENDBRANCH  28  32
ENDBRANCH  25  28
ENDBRANCH  22  25
ENDBRANCH  21  22
ENDBRANCH  12  21
BRANCH  11  35
HETATM   35  O1  UNL     1      -5.177  48.728 -26.750  1.00  0.00    -0.395 OA
HETATM   36  H14 UNL     1      -5.124  48.236 -27.589  1.00  0.00     0.210 HD
ENDBRANCH  11  35
TORSDOF 10
ENDMDL
