MODEL 1
REMARK minimizedAffinity -7.89717817
REMARK CNNscore 0.605163753
REMARK CNNaffinity 6.68789625
REMARK  13 active torsions:
REMARK  status: ('A' for Active; 'I' for Inactive)
REMARK    1  A    between atoms: C4_4  and  C5_5 
REMARK    2  A    between atoms: C5_5  and  C6_6 
REMARK    3  A    between atoms: C6_6  and  C7_7 
REMARK    4  A    between atoms: C9_9  and  C10_10 
REMARK    5  A    between atoms: C11_11  and  C12_12 
REMARK    6  A    between atoms: C14_14  and  C15_15 
REMARK    7  A    between atoms: C18_18  and  O1_19 
REMARK    8  A    between atoms: C19_21  and  C20_22 
REMARK    9  A    between atoms: C20_22  and  C21_23 
REMARK   10  A    between atoms: C21_23  and  C22_24 
REMARK   11  A    between atoms: C22_24  and  O3_25 
REMARK   12  A    between atoms: C24_27  and  C26_29 
REMARK   13  A    between atoms: C29_33  and  O5_35 
ROOT
HETATM    1  C15 UNL     1      -1.158  49.043 -18.413  1.00  0.00     0.149 C 
HETATM    2  C16 UNL     1      -1.041  49.605 -19.827  1.00  0.00     0.054 C 
HETATM    3  C17 UNL     1      -2.493  49.782 -20.321  1.00  0.00     0.050 C 
HETATM    4  C18 UNL     1      -3.203  50.001 -18.968  1.00  0.00     0.270 C 
HETATM    5  O2  UNL     1      -2.519  49.215 -17.996  1.00  0.00    -0.351 OA
HETATM    6  C19 UNL     1      -2.578  51.051 -21.253  1.00  0.00     0.032 C 
HETATM    7  C23 UNL     1      -1.848  50.794 -22.585  1.00  0.00    -0.066 C 
HETATM    8  C24 UNL     1      -0.805  51.510 -23.081  1.00  0.00    -0.021 C 
HETATM    9  C25 UNL     1      -0.180  51.271 -24.435  1.00  0.00     0.052 C 
HETATM   10  C27 UNL     1      -2.405  49.582 -23.316  1.00  0.00     0.038 C 
HETATM   11  C28 UNL     1      -2.359  48.329 -22.443  1.00  0.00     0.042 C 
HETATM   12  C29 UNL     1      -3.037  48.505 -21.067  1.00  0.00     0.067 C 
HETATM   13  C30 UNL     1      -2.913  47.178 -20.301  1.00  0.00     0.047 C 
ENDROOT
BRANCH   4  14
HETATM   14  O1  UNL     1      -3.106  51.351 -18.525  1.00  0.00    -0.370 OA
HETATM   15  H26 UNL     1      -3.565  51.338 -17.664  1.00  0.00     0.212 HD
ENDBRANCH   4  14
BRANCH   6  16
HETATM   16  C20 UNL     1      -4.020  51.581 -21.496  1.00  0.00     0.012 C 
BRANCH  16  17
HETATM   17  C21 UNL     1      -4.178  52.430 -22.767  1.00  0.00     0.027 C 
BRANCH  17  18
HETATM   18  C22 UNL     1      -5.162  51.881 -23.799  1.00  0.00     0.164 C 
BRANCH  18  19
HETATM   19  O3  UNL     1      -6.347  51.395 -23.187  1.00  0.00    -0.401 OA
HETATM   20  H34 UNL     1      -6.869  52.174 -22.903  1.00  0.00     0.209 HD
ENDBRANCH  18  19
ENDBRANCH  17  18
ENDBRANCH  16  17
ENDBRANCH   6  16
BRANCH  12  21
HETATM   21  O5  UNL     1      -4.443  48.689 -21.296  1.00  0.00    -0.389 OA
HETATM   22  H46 UNL     1      -4.788  47.914 -21.772  1.00  0.00     0.210 HD
ENDBRANCH  12  21
BRANCH   1  23
HETATM   23  C14 UNL     1      -0.269  49.741 -17.423  1.00  0.00     0.011 C 
HETATM   24  C12 UNL     1       0.284  50.967 -17.535  1.00  0.00    -0.063 C 
HETATM   25  C13 UNL     1       0.043  51.883 -18.707  1.00  0.00     0.048 C 
BRANCH  24  26
HETATM   26  C11 UNL     1       1.154  51.442 -16.458  1.00  0.00     0.006 C 
HETATM   27  C10 UNL     1       1.174  50.998 -15.191  1.00  0.00     0.001 C 
BRANCH  27  28
HETATM   28  C9  UNL     1       2.064  51.546 -14.186  1.00  0.00     0.002 C 
HETATM   29  C7  UNL     1       2.158  51.162 -12.897  1.00  0.00    -0.084 C 
HETATM   30  C8  UNL     1       1.393  50.022 -12.277  1.00  0.00     0.043 C 
BRANCH  29  31
HETATM   31  C6  UNL     1       3.140  51.868 -11.972  1.00  0.00     0.037 C 
BRANCH  31  32
HETATM   32  C5  UNL     1       2.488  52.648 -10.821  1.00  0.00     0.031 C 
BRANCH  32  33
HETATM   33  C4  UNL     1       2.544  54.143 -10.982  1.00  0.00    -0.024 C 
HETATM   34  C2  UNL     1       3.550  54.967 -10.628  1.00  0.00    -0.091 C 
HETATM   35  C1  UNL     1       4.820  54.532  -9.953  1.00  0.00     0.042 C 
HETATM   36  C3  UNL     1       3.457  56.449 -10.884  1.00  0.00     0.042 C 
ENDBRANCH  32  33
ENDBRANCH  31  32
ENDBRANCH  29  31
ENDBRANCH  27  28
ENDBRANCH  24  26
ENDBRANCH   1  23
BRANCH   8  37
HETATM   37  C26 UNL     1      -0.155  52.633 -22.330  1.00  0.00     0.265 C 
HETATM   38  O4  UNL     1       1.011  52.596 -21.953  1.00  0.00    -0.302 OA
ENDBRANCH   8  37
TORSDOF 13
ENDMDL
