MODEL 1
REMARK minimizedAffinity -8.4633913
REMARK CNNscore 0.746638298
REMARK CNNaffinity 6.65559196
REMARK  11 active torsions:
REMARK  status: ('A' for Active; 'I' for Inactive)
REMARK    1  A    between atoms: O1_2  and  C2_3 
REMARK    2  A    between atoms: C4_5  and  O2_6 
REMARK    3  A    between atoms: O2_6  and  C5_7 
REMARK    4  A    between atoms: C8_10  and  C9_11 
REMARK    5  A    between atoms: N1_12  and  C10_14 
REMARK    6  A    between atoms: C10_14  and  C11_15 
REMARK    7  A    between atoms: C11_15  and  O3_16 
REMARK    8  A    between atoms: C17_22  and  C18_23 
REMARK    9  A    between atoms: C24_31  and  O6_32 
REMARK   10  A    between atoms: C28_36  and  O7_37 
REMARK   11  A    between atoms: C32_42  and  O9_43 
ROOT
HETATM    1  C5  UNL     1      -7.766  47.244 -25.180  1.00  0.00     0.127 C 
HETATM    2  C6  UNL     1      -8.489  48.428 -25.833  1.00  0.00     0.033 C 
HETATM    3  C7  UNL     1      -9.958  48.130 -26.125  1.00  0.00     0.021 C 
HETATM    4  C8  UNL     1     -10.201  46.865 -27.024  1.00  0.00     0.026 C 
HETATM    5  C12 UNL     1     -11.598  46.255 -26.595  1.00  0.00     0.009 C 
HETATM    6  C13 UNL     1     -12.798  47.191 -26.881  1.00  0.00     0.007 C 
HETATM    7  C14 UNL     1     -14.134  46.609 -26.423  1.00  0.00     0.013 C 
HETATM    8  C15 UNL     1     -14.421  45.209 -27.013  1.00  0.00    -0.005 C 
HETATM    9  C16 UNL     1     -14.711  45.329 -28.525  1.00  0.00     0.019 C 
HETATM   10  C17 UNL     1     -15.588  44.486 -26.260  1.00  0.00     0.028 C 
HETATM   11  C22 UNL     1     -14.921  43.922 -24.983  1.00  0.00     0.013 C 
HETATM   12  C23 UNL     1     -13.407  43.914 -25.235  1.00  0.00     0.040 C 
HETATM   13  C24 UNL     1     -13.231  44.248 -26.727  1.00  0.00     0.070 C 
HETATM   14  C25 UNL     1     -11.849  44.825 -27.133  1.00  0.00     0.026 C 
HETATM   15  C26 UNL     1     -10.692  43.905 -26.718  1.00  0.00     0.011 C 
HETATM   16  C27 UNL     1      -9.382  44.412 -27.289  1.00  0.00     0.039 C 
HETATM   17  C28 UNL     1      -9.017  45.839 -26.867  1.00  0.00     0.073 C 
HETATM   18  C29 UNL     1      -8.462  45.893 -25.428  1.00  0.00     0.071 C 
ENDROOT
BRANCH   1  19
HETATM   19  O2  UNL     1      -7.654  47.503 -23.774  1.00  0.00    -0.356 OA
BRANCH  19  20
HETATM   20  C4  UNL     1      -6.301  47.568 -23.338  1.00  0.00     0.263 C 
HETATM   21  C3  UNL     1      -5.457  48.181 -24.459  1.00  0.00     0.095 C 
HETATM   22  C2  UNL     1      -4.107  48.569 -23.880  1.00  0.00     0.156 C 
HETATM   23  C32 UNL     1      -4.311  49.638 -22.770  1.00  0.00     0.175 C 
HETATM   24  C30 UNL     1      -5.746  49.593 -22.200  1.00  0.00     0.151 C 
HETATM   25  O8  UNL     1      -6.199  48.239 -22.082  1.00  0.00    -0.354 OA
HETATM   26  C31 UNL     1      -5.817  50.241 -20.822  1.00  0.00     0.042 C 
BRANCH  22  27
HETATM   27  O1  UNL     1      -3.229  49.121 -24.866  1.00  0.00    -0.388 OA
HETATM   28  C1  UNL     1      -3.316  48.515 -26.141  1.00  0.00     0.202 C 
ENDBRANCH  22  27
BRANCH  23  29
HETATM   29  O9  UNL     1      -4.047  50.954 -23.304  1.00  0.00    -0.390 OA
HETATM   30  H49 UNL     1      -3.403  50.783 -24.028  1.00  0.00     0.210 HD
ENDBRANCH  23  29
ENDBRANCH  19  20
ENDBRANCH   1  19
BRANCH  17  31
HETATM   31  O7  UNL     1      -7.913  46.226 -27.724  1.00  0.00    -0.389 OA
HETATM   32  H41 UNL     1      -7.237  45.510 -27.674  1.00  0.00     0.210 HD
ENDBRANCH  17  31
BRANCH   4  33
HETATM   33  C9  UNL     1     -10.176  47.363 -28.483  1.00  0.00     0.068 C 
HETATM   34  N1  UNL     1      -9.517  48.400 -28.881  1.00  0.00    -0.399 N 
ATOM     35  H1  UNL     1      -8.951  48.983 -28.265  1.00  0.00     0.158 HD
BRANCH  34  36
HETATM   36  C10 UNL     1      -9.678  48.648 -30.330  1.00  0.00     0.144 C 
BRANCH  36  37
HETATM   37  C11 UNL     1      -8.534  49.533 -30.834  1.00  0.00     0.183 C 
BRANCH  37  38
HETATM   38  O3  UNL     1      -8.895  50.913 -30.787  1.00  0.00    -0.399 OA
HETATM   39  H18 UNL     1      -9.834  50.935 -30.517  1.00  0.00     0.209 HD
ENDBRANCH  37  38
ENDBRANCH  36  37
ENDBRANCH  34  36
ENDBRANCH   4  33
BRANCH  13  40
HETATM   40  O6  UNL     1     -13.443  43.038 -27.476  1.00  0.00    -0.389 OA
HETATM   41  H35 UNL     1     -12.894  42.331 -27.089  1.00  0.00     0.210 HD
ENDBRANCH  13  40
BRANCH  10  42
HETATM   42  C18 UNL     1     -16.871  45.253 -26.034  1.00  0.00    -0.045 A 
HETATM   43  C19 UNL     1     -17.166  46.148 -25.088  1.00  0.00     0.087 A 
HETATM   44  C20 UNL     1     -18.577  46.503 -25.251  1.00  0.00     0.283 A 
HETATM   45  O4  UNL     1     -19.176  47.299 -24.551  1.00  0.00    -0.260 OA
HETATM   46  O5  UNL     1     -19.099  45.796 -26.292  1.00  0.00    -0.314 OA
HETATM   47  C21 UNL     1     -18.072  44.985 -26.866  1.00  0.00     0.213 A 
ENDBRANCH  10  42
TORSDOF 11
ENDMDL
