MODEL 1
REMARK minimizedAffinity -7.04267216
REMARK CNNscore 0.505389333
REMARK CNNaffinity 6.57224035
REMARK  4 active torsions:
REMARK  status: ('A' for Active; 'I' for Inactive)
REMARK    1  A    between atoms: C4_4  and  C5_5 
REMARK    2  A    between atoms: C5_5  and  C6_6 
REMARK    3  A    between atoms: C6_6  and  C7_7 
REMARK    4  A    between atoms: C7_7  and  C9_9 
ROOT
HETATM    1  C9  UNL     1       0.656  53.448  -9.634  1.00  0.00    -0.002 C 
HETATM    2  C10 UNL     1      -0.301  54.640  -9.331  1.00  0.00     0.006 C 
HETATM    3  C11 UNL     1      -1.684  54.295  -9.912  1.00  0.00     0.011 C 
HETATM    4  C12 UNL     1      -1.622  52.788 -10.215  1.00  0.00    -0.032 C 
HETATM    5  C13 UNL     1      -1.919  52.048  -8.873  1.00  0.00     0.016 C 
HETATM    6  C14 UNL     1      -2.603  52.294 -11.318  1.00  0.00     0.004 C 
HETATM    7  C15 UNL     1      -4.092  52.520 -10.980  1.00  0.00     0.007 C 
HETATM    8  C16 UNL     1      -4.797  51.324 -10.351  1.00  0.00     0.007 C 
HETATM    9  C17 UNL     1      -4.849  50.122 -11.310  1.00  0.00     0.010 C 
HETATM   10  C18 UNL     1      -5.675  48.925 -10.719  1.00  0.00     0.018 C 
HETATM   11  C19 UNL     1      -7.181  49.287 -10.737  1.00  0.00     0.023 C 
HETATM   12  C20 UNL     1      -5.304  48.563  -9.268  1.00  0.00     0.023 C 
HETATM   13  C21 UNL     1      -5.508  47.664 -11.580  1.00  0.00     0.135 C 
HETATM   14  O1  UNL     1      -6.402  46.818 -11.684  1.00  0.00    -0.297 OA
HETATM   15  C22 UNL     1      -4.207  47.451 -12.311  1.00  0.00     0.080 C 
HETATM   16  C23 UNL     1      -3.086  48.285 -11.729  1.00  0.00     0.018 C 
HETATM   17  C24 UNL     1      -3.426  49.762 -11.791  1.00  0.00    -0.026 A 
HETATM   18  C25 UNL     1      -2.990  50.454 -13.061  1.00  0.00     0.021 A 
HETATM   19  C26 UNL     1      -2.294  50.840 -11.768  1.00  0.00    -0.027 A 
HETATM   20  C27 UNL     1      -0.808  50.414 -11.757  1.00  0.00     0.011 C 
HETATM   21  C28 UNL     1       0.146  51.138 -10.795  1.00  0.00     0.011 C 
HETATM   22  C29 UNL     1      -0.133  52.645 -10.722  1.00  0.00    -0.032 C 
HETATM   23  C30 UNL     1       0.124  53.292 -12.119  1.00  0.00     0.016 C 
ENDROOT
BRANCH   1  24
HETATM   24  C7  UNL     1       2.116  53.932  -9.908  1.00  0.00    -0.014 C 
HETATM   25  C8  UNL     1       2.962  52.776 -10.478  1.00  0.00     0.010 C 
BRANCH  24  26
HETATM   26  C6  UNL     1       2.170  55.151 -10.857  1.00  0.00     0.008 C 
BRANCH  26  27
HETATM   27  C5  UNL     1       3.210  56.215 -10.475  1.00  0.00     0.028 C 
BRANCH  27  28
HETATM   28  C4  UNL     1       4.578  55.599 -10.348  1.00  0.00    -0.025 C 
HETATM   29  C2  UNL     1       5.315  55.434  -9.232  1.00  0.00    -0.091 C 
HETATM   30  C1  UNL     1       6.678  54.796  -9.308  1.00  0.00     0.042 C 
HETATM   31  C3  UNL     1       4.898  55.828  -7.843  1.00  0.00     0.042 C 
ENDBRANCH  27  28
ENDBRANCH  26  27
ENDBRANCH  24  26
ENDBRANCH   1  24
TORSDOF 4
ENDMDL
