MODEL 1
REMARK minimizedAffinity -8.42751217
REMARK  12 active torsions:
REMARK  status: ('A' for Active; 'I' for Inactive)
REMARK    1  A    between atoms: C5_5  and  C6_6 
REMARK    2  A    between atoms: C6_6  and  C8_8 
REMARK    3  A    between atoms: C8_8  and  O1_9 
REMARK    4  A    between atoms: C15_17  and  O3_18 
REMARK    5  A    between atoms: C18_21  and  O4_23 
REMARK    6  A    between atoms: O4_23  and  C20_24 
REMARK    7  A    between atoms: C20_24  and  C21_26 
REMARK    8  A    between atoms: C21_26  and  C22_27 
REMARK    9  A    between atoms: C21_26  and  O6_29 
REMARK   10  A    between atoms: O6_29  and  C24_30 
REMARK   11  A    between atoms: C24_30  and  C25_32 
REMARK   12  A    between atoms: C25_32  and  C26_33 
ROOT
HETATM    1  C1  UNL     1      -3.126  48.376 -26.455  1.00  0.00     0.015 C 
HETATM    2  C2  UNL     1      -3.872  49.024 -25.547  1.00  0.00    -0.082 C 
HETATM    3  C3  UNL     1      -5.213  48.463 -25.130  1.00  0.00     0.034 C 
HETATM    4  C4  UNL     1      -5.287  48.319 -23.603  1.00  0.00     0.010 C 
HETATM    5  C5  UNL     1      -3.892  48.384 -22.937  1.00  0.00    -0.001 C 
HETATM    6  C9  UNL     1      -3.278  49.812 -23.207  1.00  0.00     0.033 C 
HETATM    7  C10 UNL     1      -1.728  49.875 -22.985  1.00  0.00     0.162 C 
HETATM    8  O2  UNL     1      -1.205  50.092 -24.310  1.00  0.00    -0.376 OA
HETATM    9  C11 UNL     1      -2.159  50.950 -24.951  1.00  0.00     0.134 C 
HETATM   10  C12 UNL     1      -1.679  51.421 -26.315  1.00  0.00     0.068 C 
HETATM   11  C13 UNL     1      -0.221  51.880 -26.285  1.00  0.00    -0.059 C 
HETATM   12  C14 UNL     1       0.626  51.467 -27.248  1.00  0.00     0.017 C 
HETATM   13  C15 UNL     1       0.266  52.803 -25.175  1.00  0.00     0.146 C 
HETATM   14  C16 UNL     1       0.572  52.153 -23.796  1.00  0.00     0.039 C 
HETATM   15  C17 UNL     1      -0.508  52.265 -22.697  1.00  0.00     0.044 C 
HETATM   16  C18 UNL     1      -1.084  50.962 -22.019  1.00  0.00     0.093 C 
HETATM   17  C19 UNL     1       0.093  50.321 -21.249  1.00  0.00     0.049 C 
HETATM   18  C28 UNL     1      -3.473  50.230 -24.711  1.00  0.00     0.050 C 
ENDROOT
BRANCH  16  19
HETATM   19  O4  UNL     1      -2.065  51.560 -21.109  1.00  0.00    -0.306 OA
BRANCH  19  20
HETATM   20  C20 UNL     1      -2.009  51.522 -19.758  1.00  0.00     0.289 C 
HETATM   21  O5  UNL     1      -2.907  51.131 -19.026  1.00  0.00    -0.262 OA
BRANCH  20  22
HETATM   22  C21 UNL     1      -0.620  51.982 -19.280  1.00  0.00     0.231 C 
BRANCH  22  23
HETATM   23  C22 UNL     1      -0.317  53.458 -19.568  1.00  0.00     0.038 C 
HETATM   24  C23 UNL     1       1.109  53.723 -20.031  1.00  0.00     0.008 C 
ENDBRANCH  22  23
BRANCH  22  25
HETATM   25  O6  UNL     1      -0.536  51.827 -17.847  1.00  0.00    -0.306 OA
BRANCH  25  26
HETATM   26  C24 UNL     1       0.149  50.724 -17.426  1.00  0.00     0.259 C 
HETATM   27  O7  UNL     1      -0.043  49.586 -17.832  1.00  0.00    -0.265 OA
BRANCH  26  28
HETATM   28  C25 UNL     1       1.172  51.134 -16.392  1.00  0.00     0.111 C 
BRANCH  28  29
HETATM   29  C26 UNL     1       1.849  52.467 -16.709  1.00  0.00     0.005 C 
HETATM   30  C27 UNL     1       3.286  52.527 -16.209  1.00  0.00     0.005 C 
ENDBRANCH  28  29
ENDBRANCH  26  28
ENDBRANCH  25  26
ENDBRANCH  22  25
ENDBRANCH  20  22
ENDBRANCH  19  20
ENDBRANCH  16  19
BRANCH   5  31
HETATM   31  C6  UNL     1      -3.887  47.973 -21.438  1.00  0.00     0.010 C 
HETATM   32  C7  UNL     1      -2.526  48.143 -20.763  1.00  0.00     0.012 C 
BRANCH  31  33
HETATM   33  C8  UNL     1      -4.985  48.685 -20.625  1.00  0.00     0.168 C 
BRANCH  33  34
HETATM   34  O1  UNL     1      -4.823  50.094 -20.624  1.00  0.00    -0.400 OA
HETATM   35  H14 UNL     1      -5.612  50.467 -20.196  1.00  0.00     0.209 HD
ENDBRANCH  33  34
ENDBRANCH  31  33
ENDBRANCH   5  31
BRANCH  13  36
HETATM   36  O3  UNL     1      -0.628  53.904 -25.060  1.00  0.00    -0.391 OA
HETATM   37  H23 UNL     1      -0.709  54.281 -25.954  1.00  0.00     0.210 HD
ENDBRANCH  13  36
TORSDOF 12
ENDMDL
