MODEL 1
REMARK minimizedAffinity -8.71132469
REMARK  12 active torsions:
REMARK  status: ('A' for Active; 'I' for Inactive)
REMARK    1  A    between atoms: C2_2  and  C17_19 
REMARK    2  A    between atoms: C3_3  and  C4_4 
REMARK    3  A    between atoms: C4_4  and  C5_5 
REMARK    4  A    between atoms: C5_5  and  C6_6 
REMARK    5  A    between atoms: C12_12  and  O1_13 
REMARK    6  A    between atoms: C17_19  and  C18_20 
REMARK    7  A    between atoms: C19_21  and  C20_22 
REMARK    8  A    between atoms: C20_22  and  C22_24 
REMARK    9  A    between atoms: C22_24  and  C23_26 
REMARK   10  A    between atoms: C23_26  and  O4_27 
REMARK   11  A    between atoms: C23_26  and  C24_28 
REMARK   12  A    between atoms: C24_28  and  C25_29 
ROOT
HETATM    1  C1  UNL     1      -2.491   7.839  12.879  1.00  0.00     0.043 C 
HETATM    2  C2  UNL     1      -3.198   6.534  13.140  1.00  0.00    -0.084 C 
HETATM    3  C3  UNL     1      -4.521   6.426  13.381  1.00  0.00    -0.024 C 
ENDROOT
BRANCH   3   4
HETATM    4  C4  UNL     1      -5.541   7.529  13.341  1.00  0.00     0.030 C 
BRANCH   4   5
HETATM    5  C5  UNL     1      -6.085   8.007  14.692  1.00  0.00     0.042 C 
BRANCH   5   6
HETATM    6  C6  UNL     1      -7.552   7.663  15.064  1.00  0.00     0.065 C 
HETATM    7  C7  UNL     1      -8.371   8.941  15.315  1.00  0.00     0.046 C 
HETATM    8  C8  UNL     1      -7.717   6.739  16.279  1.00  0.00     0.043 C 
HETATM    9  C9  UNL     1      -7.096   5.376  16.019  1.00  0.00     0.044 C 
HETATM   10  C10 UNL     1      -7.523   4.857  14.678  1.00  0.00    -0.021 A 
HETATM   11  C11 UNL     1      -7.404   3.488  14.396  1.00  0.00     0.046 A 
HETATM   12  C16 UNL     1      -8.015   5.725  13.694  1.00  0.00     0.082 A 
HETATM   13  C12 UNL     1      -7.796   3.002  13.153  1.00  0.00     0.066 A 
HETATM   14  C13 UNL     1      -8.300   3.858  12.181  1.00  0.00     0.046 A 
HETATM   15  C14 UNL     1      -8.414   5.229  12.441  1.00  0.00    -0.025 A 
HETATM   16  C15 UNL     1      -8.960   6.148  11.386  1.00  0.00     0.051 C 
HETATM   17  O2  UNL     1      -8.162   7.074  13.891  1.00  0.00    -0.340 OA
BRANCH  13  18
HETATM   18  O1  UNL     1      -7.706   1.678  12.847  1.00  0.00    -0.361 OA
HETATM   19  H17 UNL     1      -7.368   1.202  13.622  1.00  0.00     0.217 HD
ENDBRANCH  13  18
ENDBRANCH   5   6
ENDBRANCH   4   5
ENDBRANCH   3   4
BRANCH   2  20
HETATM   20  C17 UNL     1      -2.301   5.305  13.143  1.00  0.00     0.060 C 
BRANCH  20  21
HETATM   21  C18 UNL     1      -1.757   5.021  11.770  1.00  0.00    -0.026 C 
HETATM   22  C19 UNL     1      -0.577   5.326  11.205  1.00  0.00    -0.019 C 
BRANCH  22  23
HETATM   23  C20 UNL     1       0.637   6.085  11.693  1.00  0.00     0.076 C 
HETATM   24  C21 UNL     1       0.993   5.964  13.175  1.00  0.00     0.022 C 
BRANCH  23  25
HETATM   25  C22 UNL     1       1.837   5.725  10.806  1.00  0.00     0.162 C 
HETATM   26  O3  UNL     1       2.064   4.567  10.431  1.00  0.00    -0.294 OA
BRANCH  25  27
HETATM   27  C23 UNL     1       2.733   6.870  10.292  1.00  0.00     0.188 C 
BRANCH  27  28
HETATM   28  O4  UNL     1       2.253   8.134  10.743  1.00  0.00    -0.388 OA
HETATM   29  H31 UNL     1       1.528   7.944  11.376  1.00  0.00     0.210 HD
ENDBRANCH  27  28
BRANCH  27  30
HETATM   30  C24 UNL     1       2.954   6.912   8.773  1.00  0.00     0.043 C 
BRANCH  30  31
HETATM   31  C25 UNL     1       1.997   7.740   7.885  1.00  0.00    -0.020 C 
HETATM   32  C26 UNL     1       0.619   7.971   8.501  1.00  0.00     0.009 C 
HETATM   33  C27 UNL     1       1.858   7.191   6.466  1.00  0.00     0.009 C 
ENDBRANCH  30  31
ENDBRANCH  27  30
ENDBRANCH  25  27
ENDBRANCH  23  25
ENDBRANCH  22  23
ENDBRANCH  20  21
ENDBRANCH   2  20
TORSDOF 12
ENDMDL
