MODEL 1
REMARK minimizedAffinity -7.99324942
REMARK  9 active torsions:
REMARK  status: ('A' for Active; 'I' for Inactive)
REMARK    1  A    between atoms: O1_2  and  C2_3 
REMARK    2  A    between atoms: C2_3  and  C3_4 
REMARK    3  A    between atoms: C3_4  and  N1_5 
REMARK       I    between atoms: N1_5  and  C4_6 
REMARK    4  A    between atoms: C4_6  and  C5_8 
REMARK    5  A    between atoms: C5_8  and  C7_10 
REMARK    6  A    between atoms: C14_17  and  N2_18 
REMARK       I    between atoms: N2_18  and  C15_19 
REMARK    7  A    between atoms: C15_19  and  C16_21 
REMARK    8  A    between atoms: C16_21  and  O4_22 
REMARK    9  A    between atoms: C21_27  and  O5_28 
ROOT
HETATM    1  C7  UNL     1      -0.399   4.442  11.400  1.00  0.00     0.027 C 
HETATM    2  C8  UNL     1      -0.432   2.934  11.680  1.00  0.00     0.009 C 
HETATM    3  C9  UNL     1      -1.713   2.279  11.152  1.00  0.00     0.010 C 
HETATM    4  C10 UNL     1      -2.992   3.162  11.236  1.00  0.00    -0.037 C 
HETATM    5  C11 UNL     1      -3.268   3.796   9.849  1.00  0.00     0.015 C 
HETATM    6  C12 UNL     1      -4.184   2.237  11.592  1.00  0.00     0.011 C 
HETATM    7  C13 UNL     1      -5.486   2.992  11.824  1.00  0.00     0.026 C 
HETATM    8  C14 UNL     1      -5.340   4.095  12.877  1.00  0.00     0.088 C 
HETATM    9  C18 UNL     1      -4.146   5.046  12.589  1.00  0.00     0.012 C 
HETATM   10  C19 UNL     1      -4.016   6.068  13.731  1.00  0.00     0.012 C 
HETATM   11  C20 UNL     1      -2.830   4.230  12.356  1.00  0.00     0.028 C 
HETATM   12  C21 UNL     1      -1.569   5.124  12.161  1.00  0.00     0.128 C 
ENDROOT
BRANCH   1  13
HETATM   13  C5  UNL     1       0.997   5.057  11.707  1.00  0.00     0.080 C 
HETATM   14  C6  UNL     1       0.905   6.397  12.445  1.00  0.00     0.020 C 
BRANCH  13  15
HETATM   15  C4  UNL     1       1.832   5.252  10.439  1.00  0.00     0.222 C 
HETATM   16  N1  UNL     1       2.914   4.412  10.306  1.00  0.00    -0.359 N 
HETATM   17  H8  UNL     1       3.115   3.728  11.023  1.00  0.00     0.162 HD
HETATM   18  O2  UNL     1       1.544   6.098   9.598  1.00  0.00    -0.273 OA
BRANCH  16  19
HETATM   19  C3  UNL     1       3.823   4.508   9.180  1.00  0.00     0.148 C 
BRANCH  19  20
HETATM   20  C2  UNL     1       4.652   3.244   8.954  1.00  0.00     0.186 C 
BRANCH  20  21
HETATM   21  O1  UNL     1       4.897   3.095   7.552  1.00  0.00    -0.394 OA
HETATM   22  C1  UNL     1       3.917   3.778   6.780  1.00  0.00     0.201 C 
ENDBRANCH  20  21
ENDBRANCH  19  20
ENDBRANCH  16  19
ENDBRANCH  13  15
ENDBRANCH   1  13
BRANCH  12  23
HETATM   23  O5  UNL     1      -1.103   5.476  13.467  1.00  0.00    -0.395 OA
HETATM   24  H38 UNL     1      -1.248   6.429  13.598  1.00  0.00     0.210 HD
ENDBRANCH  12  23
BRANCH   8  25
HETATM   25  N2  UNL     1      -6.591   4.839  12.960  1.00  0.00    -0.354 N 
HETATM   26  C15 UNL     1      -7.791   4.247  13.293  1.00  0.00     0.241 C 
HETATM   27  O3  UNL     1      -7.904   3.088  13.678  1.00  0.00    -0.271 OA
HETATM   28  H26 UNL     1      -6.678   5.736  12.488  1.00  0.00     0.162 HD
BRANCH  26  29
HETATM   29  C16 UNL     1      -8.991   5.189  13.162  1.00  0.00     0.269 C 
BRANCH  29  30
HETATM   30  O4  UNL     1      -8.771   6.427  13.844  1.00  0.00    -0.387 OA
HETATM   31  C17 UNL     1      -9.997   7.104  14.089  1.00  0.00     0.202 C 
ENDBRANCH  29  30
ENDBRANCH  26  29
ENDBRANCH   8  25
TORSDOF 9
ENDMDL
