MODEL 1
REMARK minimizedAffinity -9.54492378
REMARK  6 active torsions:
REMARK  status: ('A' for Active; 'I' for Inactive)
REMARK    1  A    between atoms: C2_2  and  C30_32 
REMARK    2  A    between atoms: C3_3  and  C4_4 
REMARK    3  A    between atoms: C4_4  and  C5_5 
REMARK    4  A    between atoms: C5_5  and  C6_6 
REMARK    5  A    between atoms: C6_6  and  C8_8 
REMARK    6  A    between atoms: C30_32  and  O4_34 
ROOT
HETATM    1  C8  UNL     1      -0.855  51.841 -21.104  1.00  0.00    -0.002 C 
HETATM    2  C9  UNL     1      -0.260  50.789 -20.125  1.00  0.00     0.007 C 
HETATM    3  C10 UNL     1      -1.382  49.780 -19.809  1.00  0.00     0.015 C 
HETATM    4  C11 UNL     1      -2.679  50.472 -20.266  1.00  0.00    -0.005 C 
HETATM    5  C12 UNL     1      -3.110  51.447 -19.125  1.00  0.00     0.021 C 
HETATM    6  C13 UNL     1      -3.926  49.651 -20.561  1.00  0.00    -0.000 C 
HETATM    7  C14 UNL     1      -4.840  50.065 -21.481  1.00  0.00    -0.060 C 
HETATM    8  C15 UNL     1      -4.607  51.329 -22.307  1.00  0.00     0.036 C 
HETATM    9  C16 UNL     1      -3.290  52.100 -22.076  1.00  0.00     0.015 C 
HETATM   10  C17 UNL     1      -2.170  51.167 -21.594  1.00  0.00    -0.028 C 
HETATM   11  C18 UNL     1      -1.858  50.149 -22.732  1.00  0.00     0.016 C 
HETATM   12  C19 UNL     1      -6.166  49.295 -21.691  1.00  0.00    -0.014 C 
HETATM   13  C20 UNL     1      -7.118  49.824 -20.586  1.00  0.00     0.020 C 
HETATM   14  C21 UNL     1      -6.888  49.530 -23.054  1.00  0.00     0.021 C 
HETATM   15  C22 UNL     1      -6.523  48.502 -24.114  1.00  0.00     0.080 C 
HETATM   16  C23 UNL     1      -7.000  47.135 -23.662  1.00  0.00     0.135 C 
HETATM   17  O1  UNL     1      -7.524  46.362 -24.465  1.00  0.00    -0.297 OA
HETATM   18  C24 UNL     1      -6.790  46.761 -22.181  1.00  0.00     0.018 C 
HETATM   19  C25 UNL     1      -8.160  46.730 -21.496  1.00  0.00     0.023 C 
HETATM   20  C26 UNL     1      -6.200  45.335 -22.149  1.00  0.00     0.023 C 
HETATM   21  C27 UNL     1      -5.778  47.779 -21.566  1.00  0.00     0.020 C 
HETATM   22  C28 UNL     1      -5.298  47.473 -20.146  1.00  0.00     0.090 C 
HETATM   23  C29 UNL     1      -4.192  48.426 -19.730  1.00  0.00     0.157 C 
HETATM   24  O2  UNL     1      -3.542  48.198 -18.711  1.00  0.00    -0.293 OA
ENDROOT
BRANCH   1  25
HETATM   25  C6  UNL     1       0.198  52.467 -22.068  1.00  0.00    -0.014 C 
HETATM   26  C7  UNL     1       1.676  52.243 -21.726  1.00  0.00     0.010 C 
BRANCH  25  27
HETATM   27  C5  UNL     1      -0.084  52.086 -23.539  1.00  0.00     0.008 C 
BRANCH  27  28
HETATM   28  C4  UNL     1       0.667  52.963 -24.547  1.00  0.00     0.028 C 
BRANCH  28  29
HETATM   29  C3  UNL     1       0.309  52.591 -25.962  1.00  0.00    -0.013 C 
HETATM   30  C2  UNL     1       1.065  51.953 -26.876  1.00  0.00     0.008 C 
HETATM   31  C1  UNL     1       0.518  51.575 -28.224  1.00  0.00     0.055 C 
BRANCH  30  32
HETATM   32  C30 UNL     1       2.472  51.539 -26.672  1.00  0.00     0.171 C 
HETATM   33  O3  UNL     1       2.839  50.636 -25.939  1.00  0.00    -0.646 OA
BRANCH  32  34
HETATM   34  O4  UNL     1       3.342  52.193 -27.457  1.00  0.00    -0.773 OA
HETATM   35  H44 UNL     1       4.202  51.782 -27.237  1.00  0.00     0.167 HD
ENDBRANCH  32  34
ENDBRANCH  30  32
ENDBRANCH  28  29
ENDBRANCH  27  28
ENDBRANCH  25  27
ENDBRANCH   1  25
TORSDOF 6
ENDMDL
