MODEL 1
REMARK minimizedAffinity -8.12516499
REMARK CNNscore 0.426989317
REMARK CNNaffinity 6.33395815
REMARK  9 active torsions:
REMARK  status: ('A' for Active; 'I' for Inactive)
REMARK    1  A    between atoms: C2_2  and  C3_3 
REMARK    2  A    between atoms: C2_2  and  C9_12 
REMARK    3  A    between atoms: C3_3  and  C4_4 
REMARK    4  A    between atoms: C4_4  and  C5_5 
REMARK    5  A    between atoms: C5_5  and  O1_6 
REMARK    6  A    between atoms: C5_5  and  C6_7 
REMARK    7  A    between atoms: C6_7  and  O2_9 
REMARK    8  A    between atoms: C6_7  and  C8_10 
REMARK    9  A    between atoms: C8_10  and  O3_11 
ROOT
HETATM    1  C9  UNL     1       7.063  10.285  15.325  1.00  0.00    -0.002 C 
HETATM    2  C10 UNL     1       8.277   9.876  14.446  1.00  0.00     0.007 C 
HETATM    3  C11 UNL     1       7.708   9.263  13.151  1.00  0.00     0.015 C 
HETATM    4  C12 UNL     1       6.230   9.700  13.115  1.00  0.00    -0.005 C 
HETATM    5  C13 UNL     1       6.203  11.156  12.553  1.00  0.00     0.021 C 
HETATM    6  C14 UNL     1       5.213   8.951  12.264  1.00  0.00    -0.000 C 
HETATM    7  C15 UNL     1       3.901   8.906  12.620  1.00  0.00    -0.060 C 
HETATM    8  C16 UNL     1       3.422   9.549  13.926  1.00  0.00     0.036 C 
HETATM    9  C17 UNL     1       4.482  10.182  14.851  1.00  0.00     0.015 C 
HETATM   10  C18 UNL     1       5.865   9.554  14.647  1.00  0.00    -0.028 C 
HETATM   11  C19 UNL     1       5.801   8.071  15.118  1.00  0.00     0.016 C 
HETATM   12  C20 UNL     1       2.827   8.169  11.774  1.00  0.00    -0.014 C 
HETATM   13  C21 UNL     1       2.740   6.742  12.364  1.00  0.00     0.020 C 
HETATM   14  C22 UNL     1       1.440   8.855  11.877  1.00  0.00     0.021 C 
HETATM   15  C23 UNL     1       0.395   8.260  10.946  1.00  0.00     0.080 C 
HETATM   16  C24 UNL     1       0.863   8.354   9.516  1.00  0.00     0.135 C 
HETATM   17  O4  UNL     1       0.124   8.835   8.658  1.00  0.00    -0.297 OA
HETATM   18  C25 UNL     1       2.242   7.764   9.185  1.00  0.00     0.018 C 
HETATM   19  C26 UNL     1       2.672   8.316   7.801  1.00  0.00     0.023 C 
HETATM   20  C27 UNL     1       2.094   6.243   9.033  1.00  0.00     0.023 C 
HETATM   21  C28 UNL     1       3.275   8.230  10.271  1.00  0.00     0.020 C 
HETATM   22  C29 UNL     1       4.662   7.602  10.115  1.00  0.00     0.090 C 
HETATM   23  C30 UNL     1       5.675   8.297  10.994  1.00  0.00     0.157 C 
HETATM   24  O5  UNL     1       6.861   8.296  10.670  1.00  0.00    -0.293 OA
ENDROOT
BRANCH   1  25
HETATM   25  C2  UNL     1       7.348  10.224  16.858  1.00  0.00    -0.014 C 
HETATM   26  C1  UNL     1       6.730  11.331  17.717  1.00  0.00     0.010 C 
BRANCH  25  27
HETATM   27  C3  UNL     1       8.860  10.067  17.145  1.00  0.00     0.007 C 
BRANCH  27  28
HETATM   28  C4  UNL     1       9.354  10.771  18.423  1.00  0.00     0.035 C 
BRANCH  28  29
HETATM   29  C5  UNL     1      10.701  11.491  18.268  1.00  0.00     0.154 C 
BRANCH  29  30
HETATM   30  O1  UNL     1      11.562  10.688  17.446  1.00  0.00    -0.392 OA
HETATM   31  H10 UNL     1      12.444  11.108  17.533  1.00  0.00     0.210 HD
ENDBRANCH  29  30
BRANCH  29  32
HETATM   32  C6  UNL     1      11.434  11.793  19.602  1.00  0.00     0.101 C 
HETATM   33  C7  UNL     1      10.485  12.253  20.717  1.00  0.00     0.051 C 
BRANCH  32  34
HETATM   34  O2  UNL     1      12.002  10.537  20.048  1.00  0.00    -0.385 OA
HETATM   35  H14 UNL     1      12.757  10.784  20.624  1.00  0.00     0.210 HD
ENDBRANCH  32  34
BRANCH  32  36
HETATM   36  C8  UNL     1      12.593  12.790  19.404  1.00  0.00     0.204 C 
BRANCH  36  37
HETATM   37  O3  UNL     1      13.828  12.179  19.792  1.00  0.00    -0.398 OA
HETATM   38  H17 UNL     1      13.916  12.282  20.756  1.00  0.00     0.209 HD
ENDBRANCH  36  37
ENDBRANCH  32  36
ENDBRANCH  29  32
ENDBRANCH  28  29
ENDBRANCH  27  28
ENDBRANCH  25  27
ENDBRANCH   1  25
TORSDOF 9
ENDMDL
