MODEL 1
REMARK minimizedAffinity -7.10690355
REMARK CNNscore 0.775842547
REMARK CNNaffinity 6.16407394
REMARK  6 active torsions:
REMARK  status: ('A' for Active; 'I' for Inactive)
REMARK    1  A    between atoms: C4_4  and  C5_5 
REMARK    2  A    between atoms: C5_5  and  O1_6 
REMARK    3  A    between atoms: C5_5  and  C6_7 
REMARK    4  A    between atoms: C6_7  and  O2_10 
REMARK    5  A    between atoms: C29_33  and  O5_34 
REMARK    6  A    between atoms: C30_35  and  O6_36 
ROOT
HETATM    1  C1  UNL     1       7.789  47.859  -6.629  1.00  0.00     0.013 C 
HETATM    2  C2  UNL     1       6.991  47.371  -7.835  1.00  0.00     0.024 C 
HETATM    3  C3  UNL     1       7.821  46.336  -8.668  1.00  0.00     0.042 C 
HETATM    4  C4  UNL     1       8.765  46.904  -9.766  1.00  0.00     0.154 C 
HETATM    5  O3  UNL     1       8.217  48.076 -10.468  1.00  0.00    -0.375 OA
HETATM    6  C9  UNL     1       7.700  49.027  -9.557  1.00  0.00     0.160 C 
HETATM    7  C10 UNL     1       7.177  50.353 -10.136  1.00  0.00     0.048 C 
HETATM    8  C11 UNL     1       6.398  50.936  -8.912  1.00  0.00     0.000 C 
HETATM    9  C12 UNL     1       7.483  51.300  -7.826  1.00  0.00     0.019 C 
HETATM   10  C13 UNL     1       5.432  52.202  -9.139  1.00  0.00    -0.029 C 
HETATM   11  C14 UNL     1       4.508  52.018 -10.376  1.00  0.00     0.016 C 
HETATM   12  C15 UNL     1       6.263  53.493  -9.363  1.00  0.00     0.011 C 
HETATM   13  C16 UNL     1       5.411  54.759  -9.452  1.00  0.00     0.007 C 
HETATM   14  C17 UNL     1       4.458  54.998  -8.254  1.00  0.00     0.009 C 
HETATM   15  C18 UNL     1       3.523  56.261  -8.508  1.00  0.00     0.017 C 
HETATM   16  C19 UNL     1       3.302  56.637  -9.990  1.00  0.00     0.023 C 
HETATM   17  C20 UNL     1       4.166  57.479  -7.809  1.00  0.00     0.023 C 
HETATM   18  C21 UNL     1       2.104  56.067  -7.954  1.00  0.00     0.135 C 
HETATM   19  O4  UNL     1       1.492  56.983  -7.397  1.00  0.00    -0.297 OA
HETATM   20  C22 UNL     1       1.404  54.748  -8.209  1.00  0.00     0.080 C 
HETATM   21  C23 UNL     1       2.363  53.597  -8.493  1.00  0.00     0.017 C 
HETATM   22  C24 UNL     1       3.699  53.720  -7.731  1.00  0.00    -0.035 C 
HETATM   23  C25 UNL     1       3.382  53.934  -6.207  1.00  0.00     0.016 C 
HETATM   24  C26 UNL     1       4.610  52.424  -7.802  1.00  0.00     0.003 C 
HETATM   25  C27 UNL     1       3.943  51.117  -7.256  1.00  0.00     0.009 C 
HETATM   26  C28 UNL     1       4.899  49.891  -7.157  1.00  0.00     0.042 C 
HETATM   27  C29 UNL     1       5.576  49.662  -8.496  1.00  0.00     0.100 C 
HETATM   28  C30 UNL     1       6.487  48.426  -8.819  1.00  0.00     0.119 C 
ENDROOT
BRANCH   4  29
HETATM   29  C5  UNL     1      10.231  47.229  -9.340  1.00  0.00     0.180 C 
BRANCH  29  30
HETATM   30  O1  UNL     1      10.774  48.080 -10.377  1.00  0.00    -0.390 OA
HETATM   31  H9  UNL     1      10.004  48.542 -10.782  1.00  0.00     0.210 HD
ENDBRANCH  29  30
BRANCH  29  32
HETATM   32  C6  UNL     1      11.180  46.003  -9.112  1.00  0.00     0.079 C 
HETATM   33  C7  UNL     1      12.145  46.239  -7.939  1.00  0.00     0.048 C 
HETATM   34  C8  UNL     1      10.393  44.718  -8.810  1.00  0.00     0.048 C 
BRANCH  32  35
HETATM   35  O2  UNL     1      12.007  45.802 -10.267  1.00  0.00    -0.388 OA
HETATM   36  H16 UNL     1      11.960  44.868 -10.547  1.00  0.00     0.210 HD
ENDBRANCH  32  35
ENDBRANCH  29  32
ENDBRANCH   4  29
BRANCH  28  37
HETATM   37  O6  UNL     1       5.712  47.608  -9.776  1.00  0.00    -0.384 OA
HETATM   38  H50 UNL     1       5.858  48.024 -10.655  1.00  0.00     0.210 HD
ENDBRANCH  28  37
BRANCH  27  39
HETATM   39  O5  UNL     1       4.460  49.511  -9.414  1.00  0.00    -0.386 OA
HETATM   40  H49 UNL     1       4.265  48.547  -9.433  1.00  0.00     0.210 HD
ENDBRANCH  27  39
TORSDOF 6
ENDMDL
