MODEL 1
REMARK minimizedAffinity -7.07836151
REMARK CNNscore 0.240596235
REMARK CNNaffinity 5.6719532
REMARK  11 active torsions:
REMARK  status: ('A' for Active; 'I' for Inactive)
REMARK    1  A    between atoms: C2_2  and  C4_4 
REMARK    2  A    between atoms: C12_13  and  C13_14 
REMARK    3  A    between atoms: C13_14  and  C15_16 
REMARK    4  A    between atoms: C15_16  and  C16_17 
REMARK    5  A    between atoms: C16_17  and  C17_18 
REMARK    6  A    between atoms: C18_19  and  C20_21 
REMARK    7  A    between atoms: C20_21  and  O3_23 
REMARK    8  A    between atoms: C27_30  and  C28_31 
REMARK    9  A    between atoms: C28_31  and  C29_32 
REMARK   10  A    between atoms: C29_32  and  C30_33 
REMARK   11  A    between atoms: C30_33  and  O5_35 
ROOT
HETATM    1  C4  UNL     1      -8.185  46.022 -31.228  1.00  0.00     0.054 C 
HETATM    2  C5  UNL     1      -9.525  45.723 -31.847  1.00  0.00     0.160 A 
HETATM    3  O1  UNL     1     -10.497  46.778 -31.817  1.00  0.00    -0.374 OA
HETATM    4  C6  UNL     1     -10.775  45.613 -31.029  1.00  0.00     0.157 A 
HETATM    5  C7  UNL     1     -10.740  45.760 -29.532  1.00  0.00     0.035 C 
HETATM    6  C8  UNL     1     -12.081  46.332 -28.929  1.00  0.00    -0.029 C 
HETATM    7  C9  UNL     1     -12.586  47.565 -29.715  1.00  0.00     0.016 C 
HETATM    8  C10 UNL     1     -13.200  45.237 -29.031  1.00  0.00     0.011 C 
HETATM    9  C11 UNL     1     -13.613  44.870 -27.613  1.00  0.00     0.006 C 
HETATM   10  C12 UNL     1     -13.341  46.138 -26.812  1.00  0.00    -0.002 C 
HETATM   11  C21 UNL     1     -11.960  46.629 -27.364  1.00  0.00    -0.032 C 
HETATM   12  C22 UNL     1     -11.784  48.124 -27.005  1.00  0.00     0.016 C 
HETATM   13  C23 UNL     1     -10.759  45.854 -26.779  1.00  0.00     0.011 C 
HETATM   14  C24 UNL     1      -9.417  46.228 -27.419  1.00  0.00     0.011 C 
HETATM   15  C25 UNL     1      -9.506  46.439 -28.929  1.00  0.00    -0.024 A 
HETATM   16  C26 UNL     1      -9.048  47.785 -29.444  1.00  0.00     0.022 A 
HETATM   17  C27 UNL     1      -8.199  46.568 -29.772  1.00  0.00    -0.021 A 
ENDROOT
BRANCH  10  18
HETATM   18  C13 UNL     1     -13.520  46.006 -25.269  1.00  0.00    -0.014 C 
HETATM   19  C14 UNL     1     -13.822  44.586 -24.782  1.00  0.00     0.010 C 
BRANCH  18  20
HETATM   20  C15 UNL     1     -14.623  47.001 -24.810  1.00  0.00     0.008 C 
BRANCH  20  21
HETATM   21  C16 UNL     1     -16.071  46.490 -24.909  1.00  0.00     0.028 C 
BRANCH  21  22
HETATM   22  C17 UNL     1     -16.783  46.431 -23.583  1.00  0.00    -0.013 C 
HETATM   23  C18 UNL     1     -18.106  46.297 -23.358  1.00  0.00     0.008 C 
HETATM   24  C19 UNL     1     -18.684  46.332 -21.974  1.00  0.00     0.055 C 
BRANCH  23  25
HETATM   25  C20 UNL     1     -19.118  46.126 -24.423  1.00  0.00     0.171 C 
HETATM   26  O2  UNL     1     -19.528  45.058 -24.843  1.00  0.00    -0.646 OA
BRANCH  25  27
HETATM   27  O3  UNL     1     -19.495  47.287 -24.982  1.00  0.00    -0.773 OA
HETATM   28  H30 UNL     1     -20.116  47.014 -25.687  1.00  0.00     0.167 HD
ENDBRANCH  25  27
ENDBRANCH  23  25
ENDBRANCH  21  22
ENDBRANCH  20  21
ENDBRANCH  18  20
ENDBRANCH  10  18
BRANCH  17  29
HETATM   29  C28 UNL     1      -6.845  46.347 -29.065  1.00  0.00     0.021 C 
BRANCH  29  30
HETATM   30  C29 UNL     1      -6.276  47.518 -28.274  1.00  0.00     0.111 C 
BRANCH  30  31
HETATM   31  C30 UNL     1      -5.148  48.210 -28.983  1.00  0.00     0.139 C 
HETATM   32  O4  UNL     1      -3.967  48.156 -28.680  1.00  0.00    -0.650 OA
BRANCH  31  33
HETATM   33  O5  UNL     1      -5.547  48.894 -30.072  1.00  0.00    -0.776 OA
HETATM   34  H44 UNL     1      -4.725  49.319 -30.390  1.00  0.00     0.167 HD
ENDBRANCH  31  33
ENDBRANCH  30  31
ENDBRANCH  29  30
ENDBRANCH  17  29
BRANCH   1  35
HETATM   35  C2  UNL     1      -7.272  46.791 -32.193  1.00  0.00    -0.086 C 
HETATM   36  C1  UNL     1      -7.641  47.925 -32.812  1.00  0.00     0.014 C 
HETATM   37  C3  UNL     1      -5.919  46.181 -32.445  1.00  0.00     0.043 C 
ENDBRANCH   1  35
TORSDOF 11
ENDMDL
