MODEL 1
REMARK minimizedAffinity -7.70276213
REMARK CNNscore 0.292920411
REMARK CNNaffinity 5.34942627
REMARK  2 active torsions:
REMARK  status: ('A' for Active; 'I' for Inactive)
REMARK    1  A    between atoms: C13_16  and  C14_17 
REMARK    2  A    between atoms: C14_17  and  O4_19 
ROOT
HETATM    1  C1  UNL     1       3.055   9.599  23.870  1.00  0.00     0.046 C 
HETATM    2  C2  UNL     1       2.880  10.504  22.685  1.00  0.00    -0.054 C 
HETATM    3  C3  UNL     1       3.304  11.779  22.702  1.00  0.00     0.011 C 
HETATM    4  C4  UNL     1       3.165  12.694  21.514  1.00  0.00     0.159 C 
HETATM    5  O1  UNL     1       1.977  13.460  21.789  1.00  0.00    -0.372 OA
HETATM    6  C5  UNL     1       1.475  14.225  20.694  1.00  0.00     0.162 C 
HETATM    7  C6  UNL     1       0.426  13.356  19.942  1.00  0.00     0.068 C 
HETATM    8  C7  UNL     1       1.120  13.033  18.604  1.00  0.00     0.147 C 
HETATM    9  O2  UNL     1       0.754  11.814  17.957  1.00  0.00    -0.312 OA
HETATM   10  C8  UNL     1       0.717  11.866  16.597  1.00  0.00     0.283 C 
HETATM   11  O3  UNL     1       0.530  12.867  15.923  1.00  0.00    -0.260 OA
HETATM   12  C9  UNL     1       1.051  10.534  16.054  1.00  0.00     0.082 C 
HETATM   13  C10 UNL     1       1.163  10.384  14.726  1.00  0.00     0.006 C 
HETATM   14  C11 UNL     1       1.473   9.138  14.072  1.00  0.00    -0.001 C 
HETATM   15  C12 UNL     1       2.671   8.557  13.882  1.00  0.00     0.007 C 
HETATM   16  C13 UNL     1       4.076   8.994  14.276  1.00  0.00     0.172 C 
HETATM   17  O5  UNL     1       3.990   9.589  15.576  1.00  0.00    -0.379 OA
HETATM   18  C16 UNL     1       5.182  10.131  16.157  1.00  0.00     0.173 C 
HETATM   19  C17 UNL     1       5.722  11.365  15.421  1.00  0.00     0.060 C 
HETATM   20  C18 UNL     1       6.668  12.358  16.101  1.00  0.00    -0.076 C 
HETATM   21  C19 UNL     1       7.249  13.349  15.114  1.00  0.00     0.043 C 
HETATM   22  C20 UNL     1       7.016  12.486  17.400  1.00  0.00     0.084 C 
HETATM   23  C21 UNL     1       6.534  11.657  18.514  1.00  0.00     0.283 C 
HETATM   24  O6  UNL     1       6.946  10.533  18.748  1.00  0.00    -0.260 OA
HETATM   25  O7  UNL     1       5.523  12.314  19.146  1.00  0.00    -0.317 OA
HETATM   26  C22 UNL     1       4.633  11.431  19.833  1.00  0.00     0.195 C 
HETATM   27  C23 UNL     1       3.171  11.982  20.081  1.00  0.00     0.053 C 
HETATM   28  C24 UNL     1       2.242  10.726  20.217  1.00  0.00     0.170 A 
HETATM   29  O8  UNL     1       2.894   9.452  20.375  1.00  0.00    -0.370 OA
HETATM   30  C25 UNL     1       2.196   9.935  21.520  1.00  0.00     0.180 A 
HETATM   31  C26 UNL     1       2.650  13.096  18.959  1.00  0.00     0.034 C 
HETATM   32  C27 UNL     1       3.418  13.169  17.640  1.00  0.00     0.022 C 
HETATM   33  C28 UNL     1       2.550  14.424  19.676  1.00  0.00     0.119 A 
HETATM   34  C29 UNL     1       2.853  15.788  19.088  1.00  0.00     0.210 A 
HETATM   35  O9  UNL     1       3.735  15.134  20.019  1.00  0.00    -0.371 OA
ENDROOT
BRANCH  16  36
HETATM   36  C14 UNL     1       5.145   7.843  14.238  1.00  0.00     0.146 C 
HETATM   37  C15 UNL     1       6.582   8.266  13.936  1.00  0.00     0.042 C 
BRANCH  36  38
HETATM   38  O4  UNL     1       5.200   7.191  15.522  1.00  0.00    -0.393 OA
HETATM   39  H19 UNL     1       5.593   7.811  16.160  1.00  0.00     0.210 HD
ENDBRANCH  36  38
ENDBRANCH  16  36
TORSDOF 2
ENDMDL
