MODEL 1
REMARK minimizedAffinity -8.23810196
REMARK CNNscore 0.679794431
REMARK CNNaffinity 7.16298246
REMARK  12 active torsions:
REMARK  status: ('A' for Active; 'I' for Inactive)
REMARK    1  A    between atoms: N1_6  and  O1_8 
REMARK    2  A    between atoms: O1_8  and  C6_9 
REMARK    3  A    between atoms: C6_9  and  C7_10 
REMARK       I    between atoms: C7_10  and  N2_12 
REMARK    4  A    between atoms: N2_12  and  C8_13 
REMARK    5  A    between atoms: C8_13  and  C9_14 
REMARK    6  A    between atoms: C12_17  and  C13_18 
REMARK    7  A    between atoms: C13_18  and  O4_20 
REMARK    8  A    between atoms: C22_29  and  O5_30 
REMARK    9  A    between atoms: C29_37  and  O6_38 
REMARK   10  A    between atoms: C29_37  and  C30_39 
REMARK   11  A    between atoms: C30_39  and  C31_41 
REMARK   12  A    between atoms: C31_41  and  O8_42 
ROOT
HETATM    1  C1  UNL     1      -0.240  49.639 -20.534  1.00  0.00     0.020 C 
HETATM    2  C2  UNL     1      -1.164  50.523 -19.664  1.00  0.00    -0.014 C 
HETATM    3  C3  UNL     1      -0.812  52.023 -19.885  1.00  0.00     0.020 C 
HETATM    4  C4  UNL     1       0.528  52.430 -19.291  1.00  0.00     0.060 C 
HETATM    5  C5  UNL     1       0.611  52.081 -17.820  1.00  0.00     0.032 C 
HETATM    6  N1  UNL     1       1.394  52.816 -17.090  1.00  0.00    -0.271 N 
ATOM      7  H1  UNL     1       1.917  53.617 -17.444  1.00  0.00     0.194 HD
HETATM    8  C16 UNL     1      -0.154  50.888 -17.357  1.00  0.00     0.030 C 
HETATM    9  C17 UNL     1      -0.922  50.161 -18.190  1.00  0.00    -0.069 C 
HETATM   10  C18 UNL     1      -1.563  48.890 -17.675  1.00  0.00     0.035 C 
HETATM   11  C19 UNL     1      -3.034  48.773 -18.064  1.00  0.00     0.010 C 
HETATM   12  C20 UNL     1      -3.201  48.922 -19.581  1.00  0.00    -0.002 C 
HETATM   13  C21 UNL     1      -2.690  50.316 -20.021  1.00  0.00     0.031 C 
HETATM   14  C22 UNL     1      -3.063  50.633 -21.492  1.00  0.00     0.124 C 
HETATM   15  C23 UNL     1      -3.660  49.462 -22.282  1.00  0.00     0.045 C 
HETATM   16  C24 UNL     1      -4.755  48.584 -21.588  1.00  0.00     0.001 C 
HETATM   17  C25 UNL     1      -4.493  47.138 -22.078  1.00  0.00     0.019 C 
HETATM   18  C26 UNL     1      -4.644  48.642 -20.040  1.00  0.00     0.002 C 
HETATM   19  C27 UNL     1      -5.699  49.655 -19.556  1.00  0.00     0.009 C 
HETATM   20  C28 UNL     1      -6.521  50.067 -20.772  1.00  0.00     0.047 C 
HETATM   21  C29 UNL     1      -6.239  49.017 -21.856  1.00  0.00     0.128 C 
ENDROOT
BRANCH   6  22
HETATM   22  O1  UNL     1       1.437  52.380 -15.756  1.00  0.00    -0.271 OA
BRANCH  22  23
HETATM   23  C6  UNL     1       2.777  52.023 -15.442  1.00  0.00     0.303 C 
BRANCH  23  24
HETATM   24  C7  UNL     1       2.822  51.430 -14.041  1.00  0.00     0.244 C 
HETATM   25  O2  UNL     1       3.396  50.374 -13.786  1.00  0.00    -0.271 OA
HETATM   26  N2  UNL     1       2.188  52.198 -13.085  1.00  0.00    -0.355 N 
HETATM   27  H10 UNL     1       1.841  53.111 -13.351  1.00  0.00     0.162 HD
BRANCH  26  28
HETATM   28  C8  UNL     1       2.244  51.864 -11.681  1.00  0.00     0.161 C 
BRANCH  28  29
HETATM   29  C9  UNL     1       3.286  52.691 -10.969  1.00  0.00    -0.040 A 
HETATM   30  C10 UNL     1       4.307  52.080 -10.229  1.00  0.00     0.010 A 
HETATM   31  C11 UNL     1       5.250  52.859  -9.551  1.00  0.00     0.019 A 
HETATM   32  C12 UNL     1       5.177  54.257  -9.596  1.00  0.00     0.037 A 
HETATM   33  C14 UNL     1       4.155  54.873 -10.327  1.00  0.00     0.019 A 
HETATM   34  C15 UNL     1       3.216  54.093 -11.007  1.00  0.00     0.010 A 
BRANCH  32  35
HETATM   35  C13 UNL     1       6.196  55.038  -8.854  1.00  0.00     0.176 C 
HETATM   36  O3  UNL     1       5.970  55.878  -8.003  1.00  0.00    -0.646 OA
BRANCH  35  37
HETATM   37  O4  UNL     1       7.454  54.736  -9.219  1.00  0.00    -0.773 OA
HETATM   38  H15 UNL     1       8.007  55.323  -8.662  1.00  0.00     0.167 HD
ENDBRANCH  35  37
ENDBRANCH  32  35
ENDBRANCH  28  29
ENDBRANCH  26  28
ENDBRANCH  23  24
ENDBRANCH  22  23
ENDBRANCH   6  22
BRANCH  14  39
HETATM   39  O5  UNL     1      -3.986  51.719 -21.523  1.00  0.00    -0.395 OA
HETATM   40  H26 UNL     1      -3.541  52.507 -21.167  1.00  0.00     0.210 HD
ENDBRANCH  14  39
BRANCH  21  41
HETATM   41  O6  UNL     1      -6.407  49.662 -23.112  1.00  0.00    -0.381 OA
HETATM   42  H37 UNL     1      -6.256  48.998 -23.813  1.00  0.00     0.211 HD
ENDBRANCH  21  41
BRANCH  21  43
HETATM   43  C30 UNL     1      -7.282  47.862 -21.685  1.00  0.00     0.184 C 
HETATM   44  O7  UNL     1      -7.520  47.345 -20.587  1.00  0.00    -0.292 OA
BRANCH  43  45
HETATM   45  C31 UNL     1      -7.942  47.275 -22.941  1.00  0.00     0.245 C 
BRANCH  45  46
HETATM   46  O8  UNL     1      -7.646  45.928 -23.258  1.00  0.00    -0.393 OA
HETATM   47  H40 UNL     1      -6.715  45.908 -23.552  1.00  0.00     0.209 HD
ENDBRANCH  45  46
ENDBRANCH  43  45
ENDBRANCH  21  43
TORSDOF 12
ENDMDL
