MODEL 1
REMARK minimizedAffinity -7.94785881
REMARK CNNscore 0.455475092
REMARK CNNaffinity 7.33631849
REMARK  9 active torsions:
REMARK  status: ('A' for Active; 'I' for Inactive)
REMARK    1  A    between atoms: C2_2  and  O2_4 
REMARK    2  A    between atoms: O2_4  and  C3_5 
REMARK    3  A    between atoms: C3_5  and  C4_6 
REMARK    4  A    between atoms: C4_6  and  C5_7 
REMARK    5  A    between atoms: C5_7  and  C6_8 
REMARK    6  A    between atoms: C20_22  and  C21_23 
REMARK    7  A    between atoms: C21_23  and  C23_25 
REMARK    8  A    between atoms: C23_25  and  C24_26 
REMARK    9  A    between atoms: C24_26  and  C25_27 
ROOT
HETATM    1  C6  UNL     1      -0.429   6.531  13.040  1.00  0.00     0.023 C 
HETATM    2  C7  UNL     1       0.366   7.827  12.726  1.00  0.00    -0.073 C 
HETATM    3  C8  UNL     1       1.691   8.086  12.891  1.00  0.00    -0.085 C 
HETATM    4  C9  UNL     1       2.348   9.355  12.389  1.00  0.00     0.043 C 
HETATM    5  C10 UNL     1       2.683   7.212  13.618  1.00  0.00     0.043 C 
HETATM    6  C11 UNL     1      -0.594   8.910  12.241  1.00  0.00     0.035 C 
HETATM    7  C12 UNL     1      -1.633   9.229  13.326  1.00  0.00     0.010 C 
HETATM    8  C13 UNL     1      -2.392   7.960  13.762  1.00  0.00     0.003 C 
HETATM    9  C14 UNL     1      -1.421   6.806  14.252  1.00  0.00    -0.032 C 
HETATM   10  C15 UNL     1      -0.577   7.163  15.502  1.00  0.00     0.016 C 
HETATM   11  C16 UNL     1      -2.265   5.546  14.614  1.00  0.00     0.011 C 
HETATM   12  C17 UNL     1      -3.551   5.795  15.445  1.00  0.00     0.011 C 
HETATM   13  C18 UNL     1      -4.463   6.870  14.815  1.00  0.00    -0.032 C 
HETATM   14  C19 UNL     1      -4.980   6.288  13.457  1.00  0.00     0.016 C 
HETATM   15  C20 UNL     1      -5.709   7.402  15.607  1.00  0.00    -0.002 C 
HETATM   16  C29 UNL     1      -5.962   8.780  14.900  1.00  0.00     0.006 C 
HETATM   17  C30 UNL     1      -4.677   9.167  14.142  1.00  0.00     0.011 C 
HETATM   18  C31 UNL     1      -3.613   8.205  14.692  1.00  0.00    -0.032 C 
HETATM   19  C32 UNL     1      -3.174   8.816  16.062  1.00  0.00     0.016 C 
ENDROOT
BRANCH  15  20
HETATM   20  C21 UNL     1      -7.028   6.561  15.696  1.00  0.00    -0.014 C 
HETATM   21  C22 UNL     1      -6.686   5.065  15.834  1.00  0.00     0.010 C 
BRANCH  20  22
HETATM   22  C23 UNL     1      -7.951   6.776  14.472  1.00  0.00     0.008 C 
BRANCH  22  23
HETATM   23  C24 UNL     1      -7.556   6.007  13.198  1.00  0.00     0.028 C 
BRANCH  23  24
HETATM   24  C25 UNL     1      -7.948   4.556  13.190  1.00  0.00    -0.025 C 
HETATM   25  C26 UNL     1      -7.276   3.516  12.657  1.00  0.00    -0.091 C 
HETATM   26  C27 UNL     1      -7.829   2.117  12.757  1.00  0.00     0.042 C 
HETATM   27  C28 UNL     1      -5.967   3.605  11.923  1.00  0.00     0.042 C 
ENDBRANCH  23  24
ENDBRANCH  22  23
ENDBRANCH  20  22
ENDBRANCH  15  20
BRANCH   1  28
HETATM   28  C5  UNL     1       0.328   5.179  13.094  1.00  0.00     0.012 C 
BRANCH  28  29
HETATM   29  C4  UNL     1       0.282   4.415  11.764  1.00  0.00     0.028 C 
BRANCH  29  30
HETATM   30  C3  UNL     1      -1.153   4.118  11.338  1.00  0.00     0.178 C 
BRANCH  30  31
HETATM   31  O2  UNL     1      -1.171   2.998  10.439  1.00  0.00    -0.322 OA
BRANCH  31  32
HETATM   32  C2  UNL     1      -1.348   1.780  11.018  1.00  0.00     0.254 C 
HETATM   33  C1  UNL     1      -2.750   1.661  11.537  1.00  0.00     0.126 C 
HETATM   34  O1  UNL     1      -0.503   0.901  11.111  1.00  0.00    -0.266 OA
ENDBRANCH  31  32
ENDBRANCH  30  31
ENDBRANCH  29  30
ENDBRANCH  28  29
ENDBRANCH   1  28
TORSDOF 9
ENDMDL
