MODEL 1
REMARK minimizedAffinity -8.53399372
REMARK  14 active torsions:
REMARK  status: ('A' for Active; 'I' for Inactive)
REMARK    1  A    between atoms: C2_2  and  C3_3 
REMARK    2  A    between atoms: C2_2  and  C26_30 
REMARK    3  A    between atoms: C4_4  and  C5_5 
REMARK    4  A    between atoms: C6_6  and  C7_7 
REMARK    5  A    between atoms: C6_6  and  C9_9 
REMARK    6  A    between atoms: C13_13  and  C14_14 
REMARK    7  A    between atoms: C14_14  and  C15_15 
REMARK    8  A    between atoms: C15_15  and  C16_16 
REMARK    9  A    between atoms: C16_16  and  O1_17 
REMARK   10  A    between atoms: C18_19  and  C20_21 
REMARK   11  A    between atoms: C23_25  and  O3_27 
REMARK   12  A    between atoms: C25_28  and  O4_29 
REMARK   13  A    between atoms: C26_30  and  C27_31 
REMARK   14  A    between atoms: C27_31  and  C28_32 
ROOT
HETATM    1  C9  UNL     1      -1.316  49.055 -20.005  1.00  0.00     0.044 C 
HETATM    2  C10 UNL     1      -0.630  48.239 -21.100  1.00  0.00     0.013 C 
HETATM    3  C11 UNL     1      -1.741  47.354 -21.663  1.00  0.00     0.017 C 
HETATM    4  C12 UNL     1      -3.113  48.079 -21.391  1.00  0.00     0.024 C 
HETATM    5  C13 UNL     1      -3.839  48.243 -22.810  1.00  0.00     0.029 C 
HETATM    6  C17 UNL     1      -5.359  48.308 -22.651  1.00  0.00    -0.066 C 
HETATM    7  C18 UNL     1      -6.186  49.373 -22.749  1.00  0.00    -0.021 C 
HETATM    8  C19 UNL     1      -7.687  49.327 -22.668  1.00  0.00     0.052 C 
HETATM    9  C21 UNL     1      -5.886  46.936 -22.237  1.00  0.00     0.038 C 
HETATM   10  C22 UNL     1      -4.918  46.207 -21.282  1.00  0.00     0.042 C 
HETATM   11  C23 UNL     1      -4.072  47.186 -20.433  1.00  0.00     0.065 C 
HETATM   12  C24 UNL     1      -3.410  46.379 -19.303  1.00  0.00     0.047 C 
HETATM   13  C25 UNL     1      -2.666  49.403 -20.670  1.00  0.00     0.138 C 
ENDROOT
BRANCH   5  14
HETATM   14  C14 UNL     1      -3.186  49.143 -23.897  1.00  0.00     0.012 C 
BRANCH  14  15
HETATM   15  C15 UNL     1      -3.197  48.558 -25.323  1.00  0.00     0.027 C 
BRANCH  15  16
HETATM   16  C16 UNL     1      -3.505  49.553 -26.436  1.00  0.00     0.164 C 
BRANCH  16  17
HETATM   17  O1  UNL     1      -3.376  48.951 -27.715  1.00  0.00    -0.401 OA
HETATM   18  H23 UNL     1      -2.485  48.569 -27.771  1.00  0.00     0.209 HD
ENDBRANCH  16  17
ENDBRANCH  15  16
ENDBRANCH  14  15
ENDBRANCH   5  14
BRANCH  11  19
HETATM   19  O3  UNL     1      -5.040  48.021 -19.764  1.00  0.00    -0.389 OA
HETATM   20  H35 UNL     1      -4.608  48.473 -19.021  1.00  0.00     0.210 HD
ENDBRANCH  11  19
BRANCH  13  21
HETATM   21  O4  UNL     1      -2.443  50.479 -21.574  1.00  0.00    -0.394 OA
HETATM   22  H37 UNL     1      -3.308  50.938 -21.668  1.00  0.00     0.210 HD
ENDBRANCH  13  21
BRANCH   1  23
HETATM   23  C6  UNL     1      -0.540  50.235 -19.410  1.00  0.00    -0.074 C 
HETATM   24  C5  UNL     1      -0.110  51.273 -20.163  1.00  0.00     0.003 C 
BRANCH  24  25
HETATM   25  C4  UNL     1      -0.245  51.436 -21.601  1.00  0.00     0.001 C 
HETATM   26  C3  UNL     1       0.083  52.578 -22.223  1.00  0.00     0.006 C 
BRANCH  26  27
HETATM   27  C2  UNL     1       0.001  52.871 -23.649  1.00  0.00    -0.067 C 
HETATM   28  C1  UNL     1       0.782  53.845 -24.155  1.00  0.00     0.019 C 
BRANCH  27  29
HETATM   29  C26 UNL     1      -0.955  52.130 -24.567  1.00  0.00     0.041 C 
BRANCH  29  30
HETATM   30  C27 UNL     1      -0.335  50.891 -25.233  1.00  0.00     0.032 C 
BRANCH  30  31
HETATM   31  C28 UNL     1       1.004  51.141 -25.873  1.00  0.00    -0.024 C 
HETATM   32  C29 UNL     1       1.254  51.599 -27.115  1.00  0.00    -0.091 C 
HETATM   33  C30 UNL     1       0.206  51.999 -28.118  1.00  0.00     0.042 C 
HETATM   34  C31 UNL     1       2.669  51.768 -27.604  1.00  0.00     0.042 C 
ENDBRANCH  30  31
ENDBRANCH  29  30
ENDBRANCH  27  29
ENDBRANCH  26  27
ENDBRANCH  24  25
BRANCH  23  35
HETATM   35  C7  UNL     1      -0.293  50.173 -17.905  1.00  0.00     0.030 C 
HETATM   36  C8  UNL     1       0.468  51.326 -17.253  1.00  0.00     0.010 C 
ENDBRANCH  23  35
ENDBRANCH   1  23
BRANCH   7  37
HETATM   37  C20 UNL     1      -5.688  50.765 -22.910  1.00  0.00     0.265 C 
HETATM   38  O2  UNL     1      -5.616  51.323 -23.998  1.00  0.00    -0.302 OA
ENDBRANCH   7  37
TORSDOF 14
ENDMDL
