MODEL 1
REMARK minimizedAffinity -8.04524803
REMARK CNNscore 0.609397113
REMARK CNNaffinity 6.61383581
REMARK  13 active torsions:
REMARK  status: ('A' for Active; 'I' for Inactive)
REMARK    1  A    between atoms: C19_21  and  O3_22 
REMARK    2  A    between atoms: C19_21  and  C20_23 
REMARK    3  A    between atoms: C20_23  and  C21_25 
REMARK    4  A    between atoms: C21_25  and  O5_26 
REMARK    5  A    between atoms: O5_26  and  C22_27 
REMARK    6  A    between atoms: C22_27  and  C23_29 
REMARK    7  A    between atoms: C23_29  and  C24_30 
REMARK    8  A    between atoms: C24_30  and  C25_31 
REMARK       I    between atoms: C25_31  and  N1_33 
REMARK    9  A    between atoms: N1_33  and  C26_34 
REMARK   10  A    between atoms: C26_34  and  C27_35 
REMARK   11  A    between atoms: C27_35  and  C28_36 
REMARK   12  A    between atoms: C27_35  and  C29_39 
REMARK   13  A    between atoms: C28_36  and  O9_38 
ROOT
HETATM    1  C20 UNL     1      -7.171   5.839  15.124  1.00  0.00     0.185 C 
HETATM    2  O4  UNL     1      -6.966   4.625  15.202  1.00  0.00    -0.292 OA
ENDROOT
BRANCH   1   3
HETATM    3  C19 UNL     1      -6.277   6.762  14.266  1.00  0.00     0.128 C 
HETATM    4  C14 UNL     1      -4.745   6.434  14.218  1.00  0.00     0.005 C 
HETATM    5  C13 UNL     1      -4.328   5.288  13.288  1.00  0.00     0.091 C 
HETATM    6  C15 UNL     1      -4.161   6.173  15.637  1.00  0.00     0.019 C 
HETATM    7  C16 UNL     1      -4.217   7.757  13.599  1.00  0.00     0.002 C 
HETATM    8  C12 UNL     1      -2.819   5.312  13.079  1.00  0.00     0.133 C 
HETATM    9  C11 UNL     1      -2.221   6.633  12.556  1.00  0.00     0.072 C 
HETATM   10  O2  UNL     1      -2.160   4.289  13.254  1.00  0.00    -0.297 OA
HETATM   11  C2  UNL     1      -0.673   6.621  12.290  1.00  0.00    -0.009 C 
HETATM   12  C10 UNL     1      -2.687   7.813  13.457  1.00  0.00     0.003 C 
HETATM   13  C1  UNL     1       0.147   6.283  13.555  1.00  0.00     0.021 C 
HETATM   14  C3  UNL     1      -0.369   5.575  11.174  1.00  0.00     0.022 C 
HETATM   15  C7  UNL     1      -0.246   8.025  11.819  1.00  0.00    -0.067 C 
HETATM   16  C4  UNL     1       0.991   5.749  10.513  1.00  0.00     0.084 C 
HETATM   17  C5  UNL     1       1.119   7.143   9.960  1.00  0.00     0.149 C 
HETATM   18  O1  UNL     1       1.739   7.394   8.930  1.00  0.00    -0.293 OA
HETATM   19  C6  UNL     1       0.527   8.252  10.742  1.00  0.00     0.053 C 
HETATM   20  C8  UNL     1      -0.730   9.193  12.645  1.00  0.00     0.035 C 
HETATM   21  C9  UNL     1      -2.239   9.152  12.855  1.00  0.00     0.010 C 
HETATM   22  C17 UNL     1      -4.900   8.828  14.439  1.00  0.00     0.009 C 
HETATM   23  C18 UNL     1      -6.285   8.234  14.758  1.00  0.00     0.047 C 
BRANCH   3  24
HETATM   24  O3  UNL     1      -6.818   6.758  12.935  1.00  0.00    -0.381 OA
HETATM   25  H25 UNL     1      -6.852   5.836  12.621  1.00  0.00     0.211 HD
ENDBRANCH   3  24
ENDBRANCH   1   3
BRANCH   1  26
HETATM   26  C21 UNL     1      -8.443   6.422  15.742  1.00  0.00     0.260 C 
BRANCH  26  27
HETATM   27  O5  UNL     1      -9.455   6.721  14.788  1.00  0.00    -0.314 OA
BRANCH  27  28
HETATM   28  C22 UNL     1     -10.122   7.891  14.985  1.00  0.00     0.259 C 
HETATM   29  O6  UNL     1      -9.614   8.938  15.362  1.00  0.00    -0.265 OA
BRANCH  28  30
HETATM   30  C23 UNL     1     -11.595   7.683  14.724  1.00  0.00     0.120 C 
BRANCH  30  31
HETATM   31  C24 UNL     1     -11.956   8.058  13.293  1.00  0.00     0.112 C 
BRANCH  31  32
HETATM   32  C25 UNL     1     -13.155   8.984  13.249  1.00  0.00     0.218 C 
HETATM   33  O7  UNL     1     -13.263   9.978  13.958  1.00  0.00    -0.274 OA
HETATM   34  N1  UNL     1     -14.087   8.619  12.302  1.00  0.00    -0.360 N 
HETATM   35  H32 UNL     1     -14.096   7.648  12.009  1.00  0.00     0.162 HD
BRANCH  34  36
HETATM   36  C26 UNL     1     -15.342   9.345  12.169  1.00  0.00     0.142 C 
BRANCH  36  37
HETATM   37  C27 UNL     1     -16.453   8.543  11.467  1.00  0.00     0.134 C 
BRANCH  37  38
HETATM   38  C28 UNL     1     -17.455   9.463  10.780  1.00  0.00     0.150 C 
HETATM   39  O8  UNL     1     -18.341   9.158   9.997  1.00  0.00    -0.649 OA
BRANCH  38  40
HETATM   40  O9  UNL     1     -17.262  10.775  11.055  1.00  0.00    -0.776 OA
HETATM   41  H36 UNL     1     -17.917  11.219  10.472  1.00  0.00     0.167 HD
ENDBRANCH  38  40
ENDBRANCH  37  38
BRANCH  37  42
HETATM   42  C29 UNL     1     -17.092   7.594  12.476  1.00  0.00    -0.042 A 
HETATM   43  C30 UNL     1     -18.040   8.093  13.385  1.00  0.00     0.008 A 
HETATM   44  C31 UNL     1     -18.676   7.242  14.289  1.00  0.00     0.001 A 
HETATM   45  C32 UNL     1     -18.380   5.881  14.295  1.00  0.00     0.000 A 
HETATM   46  C33 UNL     1     -17.450   5.370  13.393  1.00  0.00     0.001 A 
HETATM   47  C34 UNL     1     -16.814   6.218  12.484  1.00  0.00     0.008 A 
ENDBRANCH  37  42
ENDBRANCH  36  37
ENDBRANCH  34  36
ENDBRANCH  31  32
ENDBRANCH  30  31
ENDBRANCH  28  30
ENDBRANCH  27  28
ENDBRANCH  26  27
ENDBRANCH   1  26
TORSDOF 13
ENDMDL
