MODEL 1
REMARK minimizedAffinity -8.68490124
REMARK  6 active torsions:
REMARK  status: ('A' for Active; 'I' for Inactive)
REMARK    1  A    between atoms: S1_2  and  C2_5 
REMARK    2  A    between atoms: N1_13  and  C9_14 
REMARK    3  A    between atoms: C9_14  and  C10_15 
REMARK    4  A    between atoms: C17_23  and  C18_24 
REMARK    5  A    between atoms: C18_24  and  C19_25 
REMARK    6  A    between atoms: C19_25  and  O4_27 
ROOT
HETATM    1  C2  UNL     1      -1.283   6.548  13.383  1.00  0.00     0.089 A 
HETATM    2  C3  UNL     1      -0.134   6.406  12.583  1.00  0.00     0.068 A 
HETATM    3  C4  UNL     1      -0.095   5.490  11.544  1.00  0.00     0.118 A 
HETATM    4  F1  UNL     1       1.015   5.398  10.801  1.00  0.00    -0.206 F 
HETATM    5  C5  UNL     1      -1.187   4.696  11.234  1.00  0.00     0.056 A 
HETATM    6  C6  UNL     1      -2.343   4.791  12.027  1.00  0.00     0.003 A 
HETATM    7  C7  UNL     1      -3.603   4.187  11.956  1.00  0.00    -0.022 C 
HETATM    8  C8  UNL     1      -4.364   4.657  12.984  1.00  0.00     0.024 C 
HETATM    9  N1  UNL     1      -3.589   5.423  13.804  1.00  0.00    -0.343 N 
HETATM   10  C16 UNL     1      -2.375   5.671  13.137  1.00  0.00     0.068 A 
HETATM   11  C17 UNL     1      -5.749   4.105  13.024  1.00  0.00     0.046 C 
HETATM   12  C20 UNL     1      -5.802   3.391  11.614  1.00  0.00     0.016 C 
HETATM   13  C21 UNL     1      -4.331   3.213  11.121  1.00  0.00     0.042 C 
ENDROOT
BRANCH   9  14
HETATM   14  C9  UNL     1      -3.932   5.815  15.175  1.00  0.00     0.167 C 
BRANCH  14  15
HETATM   15  C10 UNL     1      -5.235   6.583  15.287  1.00  0.00    -0.040 A 
HETATM   16  C11 UNL     1      -6.229   6.189  16.198  1.00  0.00     0.010 A 
HETATM   17  C12 UNL     1      -7.419   6.912  16.307  1.00  0.00     0.024 A 
HETATM   18  C13 UNL     1      -7.616   8.042  15.519  1.00  0.00     0.034 A 
HETATM   19 CL1  UNL     1      -9.082   8.934  15.653  1.00  0.00    -0.084 Cl
HETATM   20  C14 UNL     1      -6.632   8.461  14.627  1.00  0.00     0.024 A 
HETATM   21  C15 UNL     1      -5.442   7.738  14.516  1.00  0.00     0.010 A 
ENDBRANCH  14  15
ENDBRANCH   9  14
BRANCH  11  22
HETATM   22  C18 UNL     1      -6.831   5.172  13.161  1.00  0.00     0.120 C 
BRANCH  22  23
HETATM   23  C19 UNL     1      -8.149   4.692  12.620  1.00  0.00     0.140 C 
HETATM   24  O3  UNL     1      -8.783   5.148  11.685  1.00  0.00    -0.650 OA
BRANCH  23  25
HETATM   25  O4  UNL     1      -8.627   3.644  13.321  1.00  0.00    -0.776 OA
HETATM   26  H15 UNL     1      -9.482   3.439  12.888  1.00  0.00     0.167 HD
ENDBRANCH  23  25
ENDBRANCH  22  23
ENDBRANCH  11  22
BRANCH   1  27
HETATM   27  S1  UNL     1      -1.292   7.880  14.572  1.00  0.00     0.174 S 
HETATM   28  C1  UNL     1      -0.247   7.398  15.919  1.00  0.00     0.167 C 
HETATM   29  O1  UNL     1      -2.652   7.984  15.062  1.00  0.00    -0.223 OA
HETATM   30  O2  UNL     1      -0.635   9.010  13.938  1.00  0.00    -0.223 OA
ENDBRANCH   1  27
TORSDOF 6
ENDMDL
