MODEL 1
REMARK minimizedAffinity -8.36555195
REMARK CNNscore 0.521316946
REMARK CNNaffinity 7.16906929
REMARK  11 active torsions:
REMARK  status: ('A' for Active; 'I' for Inactive)
REMARK    1  A    between atoms: C2_2  and  O1_4 
REMARK    2  A    between atoms: C2_2  and  C4_5 
REMARK    3  A    between atoms: C5_6  and  C6_7 
REMARK    4  A    between atoms: C6_7  and  C7_8 
REMARK    5  A    between atoms: C7_8  and  C8_9 
REMARK    6  A    between atoms: C7_8  and  C14_21 
REMARK    7  A    between atoms: C8_9  and  O3_11 
REMARK    8  A    between atoms: O3_11  and  C9_12 
REMARK    9  A    between atoms: C10_13  and  O4_14 
REMARK   10  A    between atoms: C11_15  and  O5_16 
REMARK   11  A    between atoms: C13_19  and  O7_20 
ROOT
HETATM    1  C7  UNL     1      -3.123  49.450 -22.496  1.00  0.00     0.094 C 
ENDROOT
BRANCH   1   2
HETATM    2  C6  UNL     1      -1.627  49.189 -22.173  1.00  0.00     0.042 C 
BRANCH   2   3
HETATM    3  C5  UNL     1      -1.135  49.746 -20.866  1.00  0.00    -0.027 C 
HETATM    4  C4  UNL     1      -1.613  50.874 -20.310  1.00  0.00     0.006 C 
BRANCH   4   5
HETATM    5  C2  UNL     1      -1.145  51.509 -19.018  1.00  0.00     0.068 C 
HETATM    6  C1  UNL     1      -0.332  50.510 -18.190  1.00  0.00     0.050 C 
HETATM    7  C3  UNL     1      -0.314  52.760 -19.305  1.00  0.00     0.050 C 
BRANCH   5   8
HETATM    8  O1  UNL     1      -2.273  51.910 -18.241  1.00  0.00    -0.387 OA
HETATM    9  H7  UNL     1      -2.777  51.099 -18.049  1.00  0.00     0.211 HD
ENDBRANCH   5   8
ENDBRANCH   4   5
ENDBRANCH   2   3
ENDBRANCH   1   2
BRANCH   1  10
HETATM   10  C8  UNL     1      -3.129  49.887 -23.956  1.00  0.00     0.264 C 
HETATM   11  O2  UNL     1      -2.913  51.026 -24.351  1.00  0.00    -0.265 OA
BRANCH  10  12
HETATM   12  O3  UNL     1      -3.450  48.845 -24.765  1.00  0.00    -0.308 OA
BRANCH  12  13
HETATM   13  C9  UNL     1      -4.126  49.153 -26.012  1.00  0.00     0.218 C 
HETATM   14  C10 UNL     1      -5.226  48.098 -26.186  1.00  0.00     0.183 C 
HETATM   15  C11 UNL     1      -5.857  48.136 -27.582  1.00  0.00     0.173 C 
HETATM   16  C12 UNL     1      -4.763  48.097 -28.641  1.00  0.00     0.205 C 
HETATM   17  O6  UNL     1      -3.866  49.183 -28.455  1.00  0.00    -0.356 OA
HETATM   18  C13 UNL     1      -3.160  49.100 -27.219  1.00  0.00     0.288 C 
BRANCH  14  19
HETATM   19  O4  UNL     1      -6.262  48.304 -25.214  1.00  0.00    -0.390 OA
HETATM   20  H15 UNL     1      -6.866  47.537 -25.318  1.00  0.00     0.210 HD
ENDBRANCH  14  19
BRANCH  15  21
HETATM   21  O5  UNL     1      -6.746  47.024 -27.711  1.00  0.00    -0.391 OA
HETATM   22  H17 UNL     1      -7.182  47.103 -28.581  1.00  0.00     0.210 HD
ENDBRANCH  15  21
BRANCH  18  23
HETATM   23  O7  UNL     1      -2.211  50.157 -27.216  1.00  0.00    -0.369 OA
HETATM   24  H21 UNL     1      -2.502  50.833 -26.571  1.00  0.00     0.212 HD
ENDBRANCH  18  23
ENDBRANCH  12  13
ENDBRANCH  10  12
ENDBRANCH   1  10
BRANCH   1  25
HETATM   25  C14 UNL     1      -4.067  48.239 -22.230  1.00  0.00     0.009 C 
HETATM   26  C15 UNL     1      -3.325  47.031 -21.576  1.00  0.00     0.007 C 
HETATM   27  C16 UNL     1      -4.276  46.389 -20.550  1.00  0.00     0.015 C 
HETATM   28  C17 UNL     1      -5.662  46.934 -20.913  1.00  0.00    -0.013 C 
HETATM   29  C18 UNL     1      -6.200  46.073 -22.094  1.00  0.00     0.021 C 
HETATM   30  C19 UNL     1      -6.769  46.912 -19.860  1.00  0.00    -0.068 C 
HETATM   31  C23 UNL     1      -5.289  48.422 -21.269  1.00  0.00    -0.028 C 
HETATM   32  C20 UNL     1      -7.777  47.824 -19.915  1.00  0.00    -0.068 C 
HETATM   33  C35 UNL     1      -6.703  45.820 -18.824  1.00  0.00     0.036 C 
HETATM   34  C21 UNL     1      -7.774  48.945 -20.964  1.00  0.00     0.036 C 
HETATM   35  C25 UNL     1      -8.969  47.805 -18.918  1.00  0.00    -0.015 C 
HETATM   36  C22 UNL     1      -6.540  49.063 -21.880  1.00  0.00     0.015 C 
HETATM   37  C26 UNL     1      -8.782  49.014 -17.965  1.00  0.00     0.020 C 
HETATM   38  C27 UNL     1     -10.312  47.965 -19.690  1.00  0.00     0.021 C 
HETATM   39  C33 UNL     1      -9.048  46.430 -18.154  1.00  0.00     0.013 C 
HETATM   40  C28 UNL     1     -11.555  47.425 -18.987  1.00  0.00     0.080 C 
HETATM   41  C29 UNL     1     -11.359  47.220 -17.502  1.00  0.00     0.135 C 
HETATM   42  O8  UNL     1     -12.180  47.669 -16.700  1.00  0.00    -0.297 OA
HETATM   43  C30 UNL     1     -10.169  46.350 -17.064  1.00  0.00     0.018 C 
HETATM   44  C31 UNL     1      -9.709  46.775 -15.653  1.00  0.00     0.023 C 
HETATM   45  C32 UNL     1     -10.697  44.900 -16.950  1.00  0.00     0.023 C 
HETATM   46  C34 UNL     1      -7.663  46.009 -17.650  1.00  0.00     0.011 C 
HETATM   47  C24 UNL     1      -4.855  49.252 -20.018  1.00  0.00     0.016 C 
ENDBRANCH   1  25
TORSDOF 11
ENDMDL
