MODEL 1
REMARK minimizedAffinity -8.48506451
REMARK CNNscore 0.551545382
REMARK CNNaffinity 6.73475838
REMARK  10 active torsions:
REMARK  status: ('A' for Active; 'I' for Inactive)
REMARK    1  A    between atoms: O1_2  and  C2_3 
REMARK    2  A    between atoms: C4_5  and  O2_6 
REMARK    3  A    between atoms: O2_6  and  C5_7 
REMARK    4  A    between atoms: C8_10  and  C9_11 
REMARK    5  A    between atoms: N1_12  and  C10_14 
REMARK    6  A    between atoms: C10_14  and  C11_15 
REMARK    7  A    between atoms: C21_27  and  C22_28 
REMARK    8  A    between atoms: C28_36  and  O5_37 
REMARK    9  A    between atoms: C32_41  and  O6_42 
REMARK   10  A    between atoms: C36_47  and  O8_48 
ROOT
HETATM    1  C5  UNL     1      -7.318  47.000 -24.721  1.00  0.00     0.127 C 
HETATM    2  C6  UNL     1      -8.105  45.698 -24.839  1.00  0.00     0.033 C 
HETATM    3  C7  UNL     1      -8.404  45.337 -26.293  1.00  0.00     0.021 C 
HETATM    4  C8  UNL     1      -9.163  46.462 -27.064  1.00  0.00     0.026 C 
HETATM    5  C16 UNL     1      -9.329  46.007 -28.565  1.00  0.00     0.009 C 
HETATM    6  C17 UNL     1     -10.515  46.657 -29.339  1.00  0.00     0.007 C 
HETATM    7  C18 UNL     1     -10.661  46.154 -30.800  1.00  0.00     0.013 C 
HETATM    8  C19 UNL     1      -9.352  46.321 -31.592  1.00  0.00    -0.005 C 
HETATM    9  C20 UNL     1      -9.165  47.845 -31.850  1.00  0.00     0.019 C 
HETATM   10  C21 UNL     1      -9.234  45.661 -33.012  1.00  0.00     0.028 C 
HETATM   11  C26 UNL     1      -7.738  45.227 -33.118  1.00  0.00     0.013 C 
HETATM   12  C27 UNL     1      -7.058  45.629 -31.794  1.00  0.00     0.040 C 
HETATM   13  C28 UNL     1      -8.212  45.616 -30.803  1.00  0.00     0.070 C 
HETATM   14  C29 UNL     1      -7.987  46.109 -29.365  1.00  0.00     0.026 C 
HETATM   15  C30 UNL     1      -7.295  47.464 -29.208  1.00  0.00     0.011 C 
HETATM   16  C31 UNL     1      -7.075  47.809 -27.739  1.00  0.00     0.039 C 
HETATM   17  C32 UNL     1      -8.383  47.812 -26.915  1.00  0.00     0.073 C 
HETATM   18  C33 UNL     1      -8.041  48.139 -25.441  1.00  0.00     0.071 C 
ENDROOT
BRANCH   1  19
HETATM   19  O2  UNL     1      -7.200  47.292 -23.324  1.00  0.00    -0.356 OA
BRANCH  19  20
HETATM   20  C4  UNL     1      -5.990  47.981 -22.992  1.00  0.00     0.263 C 
HETATM   21  C3  UNL     1      -5.290  48.340 -24.295  1.00  0.00     0.095 C 
HETATM   22  C2  UNL     1      -4.015  49.118 -23.982  1.00  0.00     0.156 C 
HETATM   23  C36 UNL     1      -3.120  48.284 -23.042  1.00  0.00     0.175 C 
HETATM   24  C34 UNL     1      -3.928  47.822 -21.814  1.00  0.00     0.151 C 
HETATM   25  O7  UNL     1      -5.143  47.164 -22.196  1.00  0.00    -0.354 OA
HETATM   26  C35 UNL     1      -3.126  46.847 -20.957  1.00  0.00     0.042 C 
BRANCH  22  27
HETATM   27  O1  UNL     1      -3.237  49.436 -25.146  1.00  0.00    -0.388 OA
HETATM   28  C1  UNL     1      -3.343  48.481 -26.193  1.00  0.00     0.202 C 
ENDBRANCH  22  27
BRANCH  23  29
HETATM   29  O8  UNL     1      -1.980  49.051 -22.634  1.00  0.00    -0.390 OA
HETATM   30  H50 UNL     1      -1.977  49.862 -23.186  1.00  0.00     0.210 HD
ENDBRANCH  23  29
ENDBRANCH  19  20
ENDBRANCH   1  19
BRANCH  17  31
HETATM   31  O6  UNL     1      -9.166  48.898 -27.434  1.00  0.00    -0.389 OA
HETATM   32  H42 UNL     1     -10.016  48.870 -26.944  1.00  0.00     0.210 HD
ENDBRANCH  17  31
BRANCH   4  33
HETATM   33  C9  UNL     1     -10.569  46.504 -26.439  1.00  0.00     0.069 C 
HETATM   34  N1  UNL     1     -11.432  47.418 -26.742  1.00  0.00    -0.397 N 
ATOM     35  H1  UNL     1     -11.248  48.148 -27.431  1.00  0.00     0.159 HD
BRANCH  34  36
HETATM   36  C10 UNL     1     -12.707  47.312 -26.004  1.00  0.00     0.158 C 
BRANCH  36  37
HETATM   37  C11 UNL     1     -13.774  46.526 -26.722  1.00  0.00    -0.025 A 
HETATM   38  C12 UNL     1     -13.701  46.245 -28.089  1.00  0.00     0.011 A 
HETATM   39  C13 UNL     1     -14.711  45.517 -28.708  1.00  0.00     0.018 A 
HETATM   40  C14 UNL     1     -15.762  45.075 -27.926  1.00  0.00     0.087 A 
HETATM   41  N2  UNL     1     -15.856  45.291 -26.597  1.00  0.00    -0.375 N 
HETATM   42  C15 UNL     1     -14.861  46.005 -26.027  1.00  0.00     0.096 A 
ATOM     43  H2  UNL     1     -16.640  44.934 -26.051  1.00  0.00     0.164 HD
ENDBRANCH  36  37
ENDBRANCH  34  36
ENDBRANCH   4  33
BRANCH  13  44
HETATM   44  O5  UNL     1      -8.561  44.218 -30.638  1.00  0.00    -0.389 OA
HETATM   45  H36 UNL     1      -7.778  43.739 -30.320  1.00  0.00     0.210 HD
ENDBRANCH  13  44
BRANCH  10  46
HETATM   46  C22 UNL     1     -10.201  44.582 -33.409  1.00  0.00    -0.045 A 
HETATM   47  C23 UNL     1     -10.080  43.257 -33.364  1.00  0.00     0.087 A 
HETATM   48  C24 UNL     1     -11.318  42.687 -33.887  1.00  0.00     0.283 A 
HETATM   49  O3  UNL     1     -11.548  41.498 -33.986  1.00  0.00    -0.260 OA
HETATM   50  O4  UNL     1     -12.160  43.695 -34.241  1.00  0.00    -0.314 OA
HETATM   51  C25 UNL     1     -11.523  44.942 -33.979  1.00  0.00     0.213 A 
ENDBRANCH  10  46
TORSDOF 10
ENDMDL
