MODEL 1
REMARK minimizedAffinity -9.64291286
REMARK CNNscore 0.448147178
REMARK CNNaffinity 6.39840698
REMARK  13 active torsions:
REMARK  status: ('A' for Active; 'I' for Inactive)
REMARK    1  A    between atoms: C19_21  and  O3_22 
REMARK    2  A    between atoms: C19_21  and  C20_23 
REMARK    3  A    between atoms: C20_23  and  C21_25 
REMARK    4  A    between atoms: C21_25  and  O5_26 
REMARK    5  A    between atoms: O5_26  and  C22_27 
REMARK    6  A    between atoms: C22_27  and  C23_29 
REMARK    7  A    between atoms: C23_29  and  C24_30 
REMARK    8  A    between atoms: C24_30  and  C25_31 
REMARK       I    between atoms: C25_31  and  N1_33 
REMARK    9  A    between atoms: N1_33  and  C26_34 
REMARK   10  A    between atoms: C26_34  and  C27_35 
REMARK   11  A    between atoms: C26_34  and  C34_42 
REMARK   12  A    between atoms: C27_35  and  C28_36 
REMARK   13  A    between atoms: C34_42  and  O9_44 
ROOT
HETATM    1  C20 UNL     1       0.171  10.364  14.552  1.00  0.00     0.185 C 
HETATM    2  O4  UNL     1      -0.473  11.375  14.857  1.00  0.00    -0.292 OA
ENDROOT
BRANCH   1   3
HETATM    3  C19 UNL     1      -0.442   9.278  13.636  1.00  0.00     0.128 C 
HETATM    4  C14 UNL     1      -1.685   8.577  14.272  1.00  0.00     0.005 C 
HETATM    5  C13 UNL     1      -2.998   9.371  14.243  1.00  0.00     0.091 C 
HETATM    6  C15 UNL     1      -1.384   8.142  15.736  1.00  0.00     0.019 C 
HETATM    7  C16 UNL     1      -1.850   7.378  13.304  1.00  0.00     0.002 C 
HETATM    8  C12 UNL     1      -4.154   8.456  14.626  1.00  0.00     0.133 C 
HETATM    9  C11 UNL     1      -4.314   7.162  13.800  1.00  0.00     0.072 C 
HETATM   10  O2  UNL     1      -4.932   8.789  15.516  1.00  0.00    -0.297 OA
HETATM   11  C2  UNL     1      -5.515   6.237  14.221  1.00  0.00    -0.009 C 
HETATM   12  C10 UNL     1      -2.957   6.402  13.730  1.00  0.00     0.003 C 
HETATM   13  C1  UNL     1      -5.429   5.789  15.699  1.00  0.00     0.021 C 
HETATM   14  C3  UNL     1      -6.849   7.009  13.981  1.00  0.00     0.022 C 
HETATM   15  C7  UNL     1      -5.501   4.963  13.354  1.00  0.00    -0.067 C 
HETATM   16  C4  UNL     1      -8.087   6.124  13.999  1.00  0.00     0.084 C 
HETATM   17  C5  UNL     1      -7.947   5.005  13.003  1.00  0.00     0.149 C 
HETATM   18  O1  UNL     1      -8.913   4.505  12.433  1.00  0.00    -0.293 OA
HETATM   19  C6  UNL     1      -6.598   4.442  12.776  1.00  0.00     0.053 C 
HETATM   20  C8  UNL     1      -4.172   4.264  13.189  1.00  0.00     0.035 C 
HETATM   21  C9  UNL     1      -3.070   5.222  12.758  1.00  0.00     0.010 C 
HETATM   22  C17 UNL     1      -0.432   6.837  13.165  1.00  0.00     0.009 C 
HETATM   23  C18 UNL     1       0.476   8.076  13.293  1.00  0.00     0.047 C 
BRANCH   3  24
HETATM   24  O3  UNL     1      -0.834   9.883  12.394  1.00  0.00    -0.381 OA
HETATM   25  H25 UNL     1      -0.276  10.678  12.250  1.00  0.00     0.211 HD
ENDBRANCH   3  24
ENDBRANCH   1   3
BRANCH   1  26
HETATM   26  C21 UNL     1       1.590  10.180  15.098  1.00  0.00     0.260 C 
BRANCH  26  27
HETATM   27  O5  UNL     1       2.016  10.860  16.272  1.00  0.00    -0.314 OA
BRANCH  27  28
HETATM   28  C22 UNL     1       1.922  10.163  17.433  1.00  0.00     0.259 C 
HETATM   29  O6  UNL     1       2.214   8.977  17.540  1.00  0.00    -0.265 OA
BRANCH  28  30
HETATM   30  C23 UNL     1       1.391  10.993  18.581  1.00  0.00     0.120 C 
BRANCH  30  31
HETATM   31  C24 UNL     1       2.448  11.799  19.327  1.00  0.00     0.112 C 
BRANCH  31  32
HETATM   32  C25 UNL     1       3.401  10.909  20.105  1.00  0.00     0.218 C 
HETATM   33  O7  UNL     1       4.537  10.650  19.731  1.00  0.00    -0.274 OA
HETATM   34  N1  UNL     1       2.858  10.437  21.279  1.00  0.00    -0.346 N 
HETATM   35  H32 UNL     1       1.846  10.400  21.334  1.00  0.00     0.163 HD
BRANCH  34  36
HETATM   36  C26 UNL     1       3.579   9.463  22.114  1.00  0.00     0.186 C 
BRANCH  36  37
HETATM   37  C27 UNL     1       4.402  10.204  23.174  1.00  0.00     0.074 C 
BRANCH  37  38
HETATM   38  C28 UNL     1       4.231  11.704  23.154  1.00  0.00    -0.056 A 
HETATM   39  C29 UNL     1       5.304  12.539  22.817  1.00  0.00     0.007 A 
HETATM   40  C30 UNL     1       5.144  13.926  22.808  1.00  0.00     0.001 A 
HETATM   41  C31 UNL     1       3.912  14.490  23.134  1.00  0.00     0.000 A 
HETATM   42  C32 UNL     1       2.839  13.667  23.470  1.00  0.00     0.001 A 
HETATM   43  C33 UNL     1       2.995  12.281  23.480  1.00  0.00     0.007 A 
ENDBRANCH  37  38
ENDBRANCH  36  37
BRANCH  36  44
HETATM   44  C34 UNL     1       2.528   8.584  22.786  1.00  0.00     0.163 C 
HETATM   45  O8  UNL     1       1.793   7.792  22.212  1.00  0.00    -0.648 OA
BRANCH  44  46
HETATM   46  O9  UNL     1       2.445   8.761  24.118  1.00  0.00    -0.775 OA
HETATM   47  H41 UNL     1       1.742   8.149  24.417  1.00  0.00     0.167 HD
ENDBRANCH  44  46
ENDBRANCH  36  44
ENDBRANCH  34  36
ENDBRANCH  31  32
ENDBRANCH  30  31
ENDBRANCH  28  30
ENDBRANCH  27  28
ENDBRANCH  26  27
ENDBRANCH   1  26
TORSDOF 13
ENDMDL
