MODEL 1
REMARK minimizedAffinity -8.50661564
REMARK CNNscore 0.448870033
REMARK CNNaffinity 6.8089757
REMARK  23 active torsions:
REMARK  status: ('A' for Active; 'I' for Inactive)
REMARK    1  A    between atoms: C3_3  and  C4_4 
REMARK    2  A    between atoms: C5_5  and  C6_6 
REMARK    3  A    between atoms: C7_8  and  O2_9 
REMARK    4  A    between atoms: C7_8  and  C8_10 
REMARK    5  A    between atoms: C8_10  and  C10_12 
REMARK       I    between atoms: C10_12  and  N1_14 
REMARK    6  A    between atoms: N1_14  and  C11_15 
REMARK    7  A    between atoms: C11_15  and  C12_16 
REMARK    8  A    between atoms: C13_17  and  C14_18 
REMARK    9  A    between atoms: C15_19  and  C17_21 
REMARK   10  A    between atoms: C17_21  and  O4_22 
REMARK   11  A    between atoms: C17_21  and  C19_24 
REMARK   12  A    between atoms: C19_24  and  C21_26 
REMARK   13  A    between atoms: C23_28  and  O5_29 
REMARK   14  A    between atoms: C24_30  and  C25_31 
REMARK   15  A    between atoms: C26_32  and  C27_33 
REMARK   16  A    between atoms: C28_34  and  C29_35 
REMARK   17  A    between atoms: C30_36  and  C31_37 
REMARK   18  A    between atoms: C31_37  and  O7_39 
REMARK   19  A    between atoms: C32_41  and  O9_42 
REMARK   20  A    between atoms: O9_42  and  C33_43 
REMARK   21  A    between atoms: C33_43  and  C34_45 
REMARK   22  A    between atoms: C34_45  and  C35_46 
REMARK   23  A    between atoms: C41_52  and  O11_53 
ROOT
HETATM    1  C10 UNL     1      -1.416   9.757  16.136  1.00  0.00     0.227 C 
HETATM    2  O3  UNL     1      -2.411  10.337  15.706  1.00  0.00    -0.273 OA
HETATM    3  N1  UNL     1      -0.971   9.882  17.431  1.00  0.00    -0.357 N 
HETATM    4  H14 UNL     1       0.000   9.631  17.604  1.00  0.00     0.162 HD
ENDROOT
BRANCH   1   5
HETATM    5  C8  UNL     1      -0.535   8.905  15.226  1.00  0.00     0.139 C 
HETATM    6  C9  UNL     1       0.839   8.796  15.897  1.00  0.00     0.026 C 
BRANCH   5   7
HETATM    7  C7  UNL     1      -1.270   7.555  14.968  1.00  0.00     0.204 C 
HETATM    8  O1  UNL     1      -2.621   7.700  15.470  1.00  0.00    -0.342 OA
HETATM    9  C6  UNL     1      -3.521   6.712  14.968  1.00  0.00     0.158 C 
HETATM   10  C42 UNL     1      -3.851   7.034  13.473  1.00  0.00     0.011 C 
HETATM   11  C41 UNL     1      -2.572   7.591  12.772  1.00  0.00     0.163 C 
HETATM   12  C43 UNL     1      -4.280   5.724  12.774  1.00  0.00     0.020 C 
HETATM   13  C44 UNL     1      -5.012   8.042  13.331  1.00  0.00     0.020 C 
HETATM   14  C32 UNL     1      -1.307   7.070  13.476  1.00  0.00     0.224 C 
BRANCH   9  15
HETATM   15  C5  UNL     1      -4.729   6.598  15.868  1.00  0.00     0.006 C 
HETATM   16  C4  UNL     1      -6.009   6.816  15.524  1.00  0.00    -0.002 C 
BRANCH  16  17
HETATM   17  C3  UNL     1      -7.095   6.687  16.468  1.00  0.00    -0.005 C 
HETATM   18  C2  UNL     1      -8.406   6.738  16.193  1.00  0.00    -0.031 C 
HETATM   19  C1  UNL     1      -9.067   6.901  14.864  1.00  0.00     0.036 C 
ENDBRANCH  16  17
ENDBRANCH   9  15
BRANCH  11  20
HETATM   20  O11 UNL     1      -2.527   9.026  12.761  1.00  0.00    -0.392 OA
HETATM   21  H53 UNL     1      -3.131   9.340  12.063  1.00  0.00     0.210 HD
ENDBRANCH  11  20
BRANCH  14  22
HETATM   22  O9  UNL     1      -0.126   7.424  12.730  1.00  0.00    -0.307 OA
BRANCH  22  23
HETATM   23  C33 UNL     1       0.768   6.413  12.541  1.00  0.00     0.263 C 
HETATM   24  O10 UNL     1       1.625   6.088  13.353  1.00  0.00    -0.265 OA
BRANCH  23  25
HETATM   25  C34 UNL     1       0.546   5.738  11.206  1.00  0.00     0.149 C 
BRANCH  25  26
HETATM   26  C35 UNL     1       1.101   6.541  10.056  1.00  0.00    -0.049 A 
HETATM   27  C36 UNL     1       0.318   7.533   9.455  1.00  0.00     0.007 A 
HETATM   28  C37 UNL     1       0.831   8.304   8.410  1.00  0.00     0.001 A 
HETATM   29  C38 UNL     1       2.130   8.085   7.956  1.00  0.00     0.000 A 
HETATM   30  C39 UNL     1       2.919   7.097   8.546  1.00  0.00     0.001 A 
HETATM   31  C40 UNL     1       2.407   6.332   9.595  1.00  0.00     0.007 A 
ENDBRANCH  25  26
ENDBRANCH  23  25
ENDBRANCH  22  23
ENDBRANCH  14  22
BRANCH   7  32
HETATM   32  O2  UNL     1      -0.632   6.498  15.707  1.00  0.00    -0.362 OA
HETATM   33  H9  UNL     1      -0.357   6.860  16.570  1.00  0.00     0.213 HD
ENDBRANCH   7  32
ENDBRANCH   5   7
ENDBRANCH   1   5
BRANCH   3  34
HETATM   34  C11 UNL     1      -1.596  10.790  18.362  1.00  0.00     0.149 C 
BRANCH  34  35
HETATM   35  C12 UNL     1      -0.597  11.431  19.274  1.00  0.00    -0.007 C 
HETATM   36  C13 UNL     1       0.498  10.875  19.810  1.00  0.00    -0.002 C 
BRANCH  36  37
HETATM   37  C14 UNL     1       1.371  11.597  20.716  1.00  0.00     0.005 C 
HETATM   38  C15 UNL     1       2.707  11.733  20.591  1.00  0.00    -0.055 C 
HETATM   39  C16 UNL     1       3.498  11.166  19.437  1.00  0.00     0.046 C 
BRANCH  38  40
HETATM   40  C17 UNL     1       3.502  12.442  21.694  1.00  0.00     0.155 C 
BRANCH  40  41
HETATM   41  O4  UNL     1       2.656  12.642  22.830  1.00  0.00    -0.386 OA
HETATM   42  C18 UNL     1       2.675  13.982  23.307  1.00  0.00     0.202 C 
ENDBRANCH  40  41
BRANCH  40  43
HETATM   43  C19 UNL     1       4.797  11.666  22.084  1.00  0.00     0.044 C 
HETATM   44  C20 UNL     1       4.508  10.467  22.999  1.00  0.00     0.015 C 
BRANCH  43  45
HETATM   45  C21 UNL     1       5.870  12.559  22.754  1.00  0.00     0.131 C 
HETATM   46  C22 UNL     1       7.083  11.820  23.307  1.00  0.00     0.067 C 
HETATM   47  C23 UNL     1       8.288  12.625  22.866  1.00  0.00     0.153 C 
HETATM   48  C24 UNL     1       7.720  13.840  22.128  1.00  0.00     0.173 C 
HETATM   49  O8  UNL     1       6.336  13.578  21.874  1.00  0.00    -0.374 OA
BRANCH  47  50
HETATM   50  O5  UNL     1       9.091  11.828  21.990  1.00  0.00    -0.393 OA
HETATM   51  H35 UNL     1       9.463  11.099  22.510  1.00  0.00     0.210 HD
ENDBRANCH  47  50
BRANCH  48  52
HETATM   52  C25 UNL     1       7.785  15.114  22.928  1.00  0.00     0.007 C 
HETATM   53  C26 UNL     1       8.641  15.316  23.944  1.00  0.00    -0.001 C 
BRANCH  53  54
HETATM   54  C27 UNL     1       8.722  16.566  24.664  1.00  0.00    -0.000 C 
HETATM   55  C28 UNL     1       7.944  16.852  25.720  1.00  0.00     0.000 C 
BRANCH  55  56
HETATM   56  C29 UNL     1       8.037  18.099  26.448  1.00  0.00     0.007 C 
HETATM   57  C30 UNL     1       7.489  18.272  27.659  1.00  0.00     0.081 C 
BRANCH  57  58
HETATM   58  C31 UNL     1       7.644  19.562  28.346  1.00  0.00     0.165 C 
HETATM   59  O6  UNL     1       8.643  20.252  28.413  1.00  0.00    -0.647 OA
BRANCH  58  60
HETATM   60  O7  UNL     1       6.479  19.925  28.912  1.00  0.00    -0.773 OA
HETATM   61  H43 UNL     1       6.682  20.782  29.342  1.00  0.00     0.167 HD
ENDBRANCH  58  60
ENDBRANCH  57  58
ENDBRANCH  55  56
ENDBRANCH  53  54
ENDBRANCH  48  52
ENDBRANCH  43  45
ENDBRANCH  40  43
ENDBRANCH  38  40
ENDBRANCH  36  37
ENDBRANCH  34  35
ENDBRANCH   3  34
TORSDOF 23
ENDMDL
