MODEL 1
REMARK minimizedAffinity -7.99737215
REMARK CNNscore 0.899439633
REMARK CNNaffinity 7.61233139
REMARK  10 active torsions:
REMARK  status: ('A' for Active; 'I' for Inactive)
REMARK    1  A    between atoms: N1_6  and  O1_8 
REMARK    2  A    between atoms: O1_8  and  C6_9 
REMARK    3  A    between atoms: C6_9  and  C7_10 
REMARK       I    between atoms: C7_10  and  N2_12 
REMARK    4  A    between atoms: N2_12  and  C8_13 
REMARK    5  A    between atoms: C8_13  and  C9_14 
REMARK    6  A    between atoms: C20_27  and  O3_28 
REMARK    7  A    between atoms: C27_35  and  O4_36 
REMARK    8  A    between atoms: C27_35  and  C28_37 
REMARK    9  A    between atoms: C28_37  and  C29_39 
REMARK   10  A    between atoms: C29_39  and  O6_40 
ROOT
HETATM    1  C1  UNL     1       0.835  52.176 -14.137  1.00  0.00     0.020 C 
HETATM    2  C2  UNL     1       1.343  51.161 -15.192  1.00  0.00    -0.014 C 
HETATM    3  C3  UNL     1       2.546  51.787 -15.959  1.00  0.00     0.020 C 
HETATM    4  C4  UNL     1       2.161  52.950 -16.859  1.00  0.00     0.060 C 
HETATM    5  C5  UNL     1       1.085  52.535 -17.841  1.00  0.00     0.032 C 
HETATM    6  N1  UNL     1       1.098  53.112 -19.004  1.00  0.00    -0.271 N 
ATOM      7  H1  UNL     1       1.806  53.784 -19.300  1.00  0.00     0.194 HD
HETATM    8  C14 UNL     1       0.076  51.545 -17.366  1.00  0.00     0.030 C 
HETATM    9  C15 UNL     1       0.169  50.953 -16.159  1.00  0.00    -0.069 C 
HETATM   10  C16 UNL     1      -0.963  50.058 -15.699  1.00  0.00     0.035 C 
HETATM   11  C17 UNL     1      -0.547  49.012 -14.667  1.00  0.00     0.010 C 
HETATM   12  C18 UNL     1       0.907  48.587 -14.883  1.00  0.00    -0.002 C 
HETATM   13  C19 UNL     1       1.855  49.777 -14.567  1.00  0.00     0.031 C 
HETATM   14  C20 UNL     1       2.228  49.857 -13.068  1.00  0.00     0.124 C 
HETATM   15  C21 UNL     1       2.705  48.520 -12.499  1.00  0.00     0.045 C 
HETATM   16  C22 UNL     1       1.693  47.362 -12.684  1.00  0.00     0.001 C 
HETATM   17  C23 UNL     1       0.509  47.580 -11.728  1.00  0.00     0.019 C 
HETATM   18  C24 UNL     1       1.260  47.268 -14.163  1.00  0.00     0.002 C 
HETATM   19  C25 UNL     1       2.441  46.543 -14.848  1.00  0.00     0.009 C 
HETATM   20  C26 UNL     1       3.166  45.741 -13.764  1.00  0.00     0.047 C 
HETATM   21  C27 UNL     1       2.382  45.974 -12.459  1.00  0.00     0.128 C 
ENDROOT
BRANCH   6  22
HETATM   22  O1  UNL     1       0.021  52.699 -19.807  1.00  0.00    -0.271 OA
BRANCH  22  23
HETATM   23  C6  UNL     1       0.535  52.125 -20.996  1.00  0.00     0.303 C 
BRANCH  23  24
HETATM   24  C7  UNL     1       0.893  53.194 -22.029  1.00  0.00     0.244 C 
HETATM   25  O2  UNL     1       1.454  54.252 -21.759  1.00  0.00    -0.271 OA
HETATM   26  N2  UNL     1       0.528  52.848 -23.318  1.00  0.00    -0.355 N 
HETATM   27  H10 UNL     1      -0.068  52.043 -23.457  1.00  0.00     0.162 HD
BRANCH  26  28
HETATM   28  C8  UNL     1       0.714  53.750 -24.431  1.00  0.00     0.161 C 
BRANCH  28  29
HETATM   29  C9  UNL     1       0.363  53.080 -25.732  1.00  0.00    -0.038 A 
HETATM   30  C10 UNL     1      -0.017  53.842 -26.841  1.00  0.00     0.025 A 
HETATM   31  C11 UNL     1      -0.354  53.188 -28.015  1.00  0.00     0.088 A 
HETATM   32  N3  UNL     1      -0.344  51.845 -28.156  1.00  0.00    -0.375 N 
HETATM   33  C12 UNL     1       0.016  51.127 -27.070  1.00  0.00     0.088 A 
ATOM     34  H3  UNL     1      -0.595  51.397 -29.036  1.00  0.00     0.164 HD
HETATM   35  C13 UNL     1       0.372  51.687 -25.853  1.00  0.00     0.025 A 
ENDBRANCH  28  29
ENDBRANCH  26  28
ENDBRANCH  23  24
ENDBRANCH  22  23
ENDBRANCH   6  22
BRANCH  14  36
HETATM   36  O3  UNL     1       3.298  50.792 -12.906  1.00  0.00    -0.395 OA
HETATM   37  H25 UNL     1       3.472  50.875 -11.951  1.00  0.00     0.210 HD
ENDBRANCH  14  36
BRANCH  21  38
HETATM   38  O4  UNL     1       3.290  46.033 -11.361  1.00  0.00    -0.381 OA
HETATM   39  H36 UNL     1       3.969  45.344 -11.485  1.00  0.00     0.211 HD
ENDBRANCH  21  38
BRANCH  21  40
HETATM   40  C28 UNL     1       1.383  44.804 -12.243  1.00  0.00     0.184 C 
HETATM   41  O5  UNL     1       0.706  44.324 -13.159  1.00  0.00    -0.292 OA
BRANCH  40  42
HETATM   42  C29 UNL     1       1.256  44.234 -10.831  1.00  0.00     0.245 C 
BRANCH  42  43
HETATM   43  O6  UNL     1       0.175  43.314 -10.738  1.00  0.00    -0.393 OA
HETATM   44  H39 UNL     1      -0.005  43.009 -11.650  1.00  0.00     0.209 HD
ENDBRANCH  42  43
ENDBRANCH  40  42
ENDBRANCH  21  40
TORSDOF 10
ENDMDL
