MODEL 1
REMARK minimizedAffinity -7.61515093
REMARK CNNscore 0.888564706
REMARK CNNaffinity 7.26209879
REMARK  7 active torsions:
REMARK  status: ('A' for Active; 'I' for Inactive)
REMARK    1  A    between atoms: C4_4  and  C5_5 
REMARK    2  A    between atoms: C5_5  and  C6_6 
REMARK    3  A    between atoms: C6_6  and  C7_7 
REMARK    4  A    between atoms: C7_7  and  C9_9 
REMARK    5  A    between atoms: C27_27  and  O1_28 
REMARK    6  A    between atoms: C28_29  and  O2_30 
REMARK    7  A    between atoms: C29_31  and  O3_32 
ROOT
HETATM    1  C9  UNL     1      -1.573  52.675 -10.254  1.00  0.00    -0.002 C 
HETATM    2  C10 UNL     1      -1.022  52.825 -11.704  1.00  0.00     0.007 C 
HETATM    3  C11 UNL     1       0.302  53.602 -11.624  1.00  0.00     0.015 C 
HETATM    4  C12 UNL     1       0.704  53.535 -10.143  1.00  0.00    -0.013 C 
HETATM    5  C13 UNL     1       1.393  52.151  -9.922  1.00  0.00     0.021 C 
HETATM    6  C14 UNL     1       1.696  54.559  -9.596  1.00  0.00    -0.068 C 
HETATM    7  C15 UNL     1       1.671  54.894  -8.279  1.00  0.00    -0.065 C 
HETATM    8  C16 UNL     1       0.573  54.352  -7.351  1.00  0.00     0.036 C 
HETATM    9  C17 UNL     1      -0.503  53.427  -7.963  1.00  0.00     0.015 C 
HETATM   10  C18 UNL     1      -0.706  53.702  -9.457  1.00  0.00    -0.029 C 
HETATM   11  C19 UNL     1      -1.308  55.131  -9.632  1.00  0.00     0.016 C 
HETATM   12  C20 UNL     1       2.712  55.856  -7.637  1.00  0.00     0.012 C 
HETATM   13  C21 UNL     1       1.975  57.187  -7.330  1.00  0.00     0.023 C 
HETATM   14  C22 UNL     1       3.919  56.197  -8.618  1.00  0.00     0.007 C 
HETATM   15  C23 UNL     1       3.416  56.344 -10.059  1.00  0.00     0.010 C 
HETATM   16  C24 UNL     1       2.712  55.098 -10.566  1.00  0.00     0.036 C 
HETATM   17  C25 UNL     1       5.179  55.279  -8.433  1.00  0.00     0.018 C 
HETATM   18  C26 UNL     1       6.116  55.220  -9.645  1.00  0.00     0.013 C 
HETATM   19  C27 UNL     1       4.804  53.886  -7.911  1.00  0.00     0.153 C 
HETATM   20  C28 UNL     1       4.128  53.969  -6.526  1.00  0.00     0.177 C 
HETATM   21  C29 UNL     1       3.361  55.300  -6.323  1.00  0.00     0.162 C 
ENDROOT
BRANCH   1  22
HETATM   22  C7  UNL     1      -3.133  52.758 -10.219  1.00  0.00    -0.014 C 
HETATM   23  C8  UNL     1      -3.604  54.050 -10.913  1.00  0.00     0.010 C 
BRANCH  22  24
HETATM   24  C6  UNL     1      -3.803  51.526 -10.868  1.00  0.00     0.008 C 
BRANCH  24  25
HETATM   25  C5  UNL     1      -4.682  50.701  -9.918  1.00  0.00     0.028 C 
BRANCH  25  26
HETATM   26  C4  UNL     1      -5.442  49.642 -10.672  1.00  0.00    -0.025 C 
HETATM   27  C2  UNL     1      -6.718  49.248 -10.489  1.00  0.00    -0.091 C 
HETATM   28  C1  UNL     1      -7.673  49.829  -9.483  1.00  0.00     0.042 C 
HETATM   29  C3  UNL     1      -7.310  48.153 -11.338  1.00  0.00     0.042 C 
ENDBRANCH  25  26
ENDBRANCH  24  25
ENDBRANCH  22  24
ENDBRANCH   1  22
BRANCH  21  30
HETATM   30  O3  UNL     1       2.488  55.217  -5.195  1.00  0.00    -0.392 OA
HETATM   31  H48 UNL     1       2.133  56.100  -5.008  1.00  0.00     0.210 HD
ENDBRANCH  21  30
BRANCH  20  32
HETATM   32  O2  UNL     1       3.313  52.805  -6.347  1.00  0.00    -0.390 OA
HETATM   33  H46 UNL     1       3.854  52.043  -6.622  1.00  0.00     0.210 HD
ENDBRANCH  20  32
BRANCH  19  34
HETATM   34  O1  UNL     1       5.950  53.032  -7.802  1.00  0.00    -0.393 OA
HETATM   35  H44 UNL     1       6.612  53.481  -7.247  1.00  0.00     0.210 HD
ENDBRANCH  19  34
TORSDOF 7
ENDMDL
