MODEL 1
REMARK minimizedAffinity -8.7857542
REMARK  6 active torsions:
REMARK  status: ('A' for Active; 'I' for Inactive)
REMARK    1  A    between atoms: C2_2  and  O2_4 
REMARK    2  A    between atoms: O2_4  and  C3_5 
REMARK    3  A    between atoms: C13_15  and  C14_16 
REMARK    4  A    between atoms: C14_16  and  C16_18 
REMARK    5  A    between atoms: C17_19  and  C18_20 
REMARK    6  A    between atoms: C18_20  and  C20_22 
ROOT
HETATM    1  C3  UNL     1      -6.943  46.341 -20.209  1.00  0.00     0.135 C 
HETATM    2  C4  UNL     1      -6.106  45.798 -21.373  1.00  0.00     0.034 C 
HETATM    3  C5  UNL     1      -4.754  46.501 -21.483  1.00  0.00     0.015 C 
HETATM    4  C6  UNL     1      -4.875  48.047 -21.590  1.00  0.00     0.001 C 
HETATM    5  C7  UNL     1      -5.507  48.388 -22.965  1.00  0.00     0.019 C 
HETATM    6  C8  UNL     1      -3.445  48.705 -21.398  1.00  0.00     0.039 C 
HETATM    7  C9  UNL     1      -2.715  49.134 -22.693  1.00  0.00     0.010 C 
HETATM    8  C10 UNL     1      -1.370  49.835 -22.425  1.00  0.00     0.010 C 
HETATM    9  C11 UNL     1      -1.533  51.036 -21.475  1.00  0.00    -0.033 C 
HETATM   10  C12 UNL     1      -2.343  52.139 -22.183  1.00  0.00     0.016 C 
HETATM   11  C13 UNL     1      -0.196  51.572 -20.875  1.00  0.00     0.001 C 
HETATM   12  C23 UNL     1      -0.644  52.283 -19.569  1.00  0.00     0.006 C 
HETATM   13  C24 UNL     1      -1.991  51.649 -19.168  1.00  0.00     0.009 C 
HETATM   14  C25 UNL     1      -2.176  50.509 -20.169  1.00  0.00     0.036 C 
HETATM   15  C26 UNL     1      -3.545  49.837 -20.315  1.00  0.00     0.123 C 
HETATM   16  C27 UNL     1      -4.741  50.735 -20.507  1.00  0.00     0.014 C 
HETATM   17  C28 UNL     1      -5.910  50.079 -20.517  1.00  0.00     0.014 C 
HETATM   18  C29 UNL     1      -5.761  48.578 -20.410  1.00  0.00     0.124 C 
HETATM   19  C30 UNL     1      -7.109  47.863 -20.302  1.00  0.00     0.079 C 
HETATM   20  O3  UNL     1      -5.036  48.299 -19.180  1.00  0.00    -0.223 OA
HETATM   21  O4  UNL     1      -3.822  49.159 -19.057  1.00  0.00    -0.224 OA
ENDROOT
BRANCH  11  22
HETATM   22  C14 UNL     1       0.792  52.369 -21.770  1.00  0.00     0.008 C 
HETATM   23  C15 UNL     1       1.214  53.660 -21.046  1.00  0.00     0.014 C 
BRANCH  22  24
HETATM   24  C16 UNL     1       0.330  52.633 -23.190  1.00  0.00    -0.026 C 
HETATM   25  C17 UNL     1       0.885  52.174 -24.326  1.00  0.00    -0.026 C 
BRANCH  25  26
HETATM   26  C18 UNL     1       0.342  52.483 -25.708  1.00  0.00     0.007 C 
HETATM   27  C19 UNL     1      -1.188  52.500 -25.654  1.00  0.00     0.014 C 
BRANCH  26  28
HETATM   28  C20 UNL     1       0.932  51.520 -26.775  1.00  0.00    -0.015 C 
HETATM   29  C21 UNL     1       0.534  51.855 -28.217  1.00  0.00     0.010 C 
HETATM   30  C22 UNL     1       2.461  51.445 -26.675  1.00  0.00     0.010 C 
ENDBRANCH  26  28
ENDBRANCH  25  26
ENDBRANCH  22  24
ENDBRANCH  11  22
BRANCH   1  31
HETATM   31  O2  UNL     1      -8.268  45.771 -20.248  1.00  0.00    -0.316 OA
BRANCH  31  32
HETATM   32  C2  UNL     1      -9.272  46.547 -19.758  1.00  0.00     0.255 C 
HETATM   33  C1  UNL     1      -9.420  46.318 -18.285  1.00  0.00     0.126 C 
HETATM   34  O1  UNL     1      -9.975  47.304 -20.410  1.00  0.00    -0.266 OA
ENDBRANCH  31  32
ENDBRANCH   1  31
TORSDOF 6
ENDMDL
