MODEL 1
REMARK minimizedAffinity -10.0998058
REMARK CNNscore 0.638642013
REMARK CNNaffinity 7.55931139
REMARK  11 active torsions:
REMARK  status: ('A' for Active; 'I' for Inactive)
REMARK    1  A    between atoms: C2_2  and  O2_4 
REMARK    2  A    between atoms: O2_4  and  C3_5 
REMARK    3  A    between atoms: C4_6  and  O3_7 
REMARK    4  A    between atoms: O3_7  and  C5_8 
REMARK    5  A    between atoms: C15_18  and  C16_19 
REMARK    6  A    between atoms: C20_23  and  C21_24 
REMARK    7  A    between atoms: C21_24  and  O4_27 
REMARK    8  A    between atoms: C24_29  and  O6_30 
REMARK    9  A    between atoms: C30_36  and  O7_37 
REMARK   10  A    between atoms: C36_44  and  O9_45 
REMARK   11  A    between atoms: C37_46  and  O10_47 
ROOT
HETATM    1  C5  UNL     1       0.982   8.219  12.616  1.00  0.00     0.133 C 
HETATM    2  C6  UNL     1      -0.101   8.806  11.699  1.00  0.00     0.034 C 
HETATM    3  C7  UNL     1      -1.485   8.922  12.325  1.00  0.00     0.013 C 
HETATM    4  C8  UNL     1      -1.832   7.717  13.171  1.00  0.00    -0.025 A 
HETATM    5  C9  UNL     1      -2.484   6.573  12.436  1.00  0.00     0.021 A 
HETATM    6  C10 UNL     1      -3.326   7.353  13.435  1.00  0.00    -0.027 A 
HETATM    7  C11 UNL     1      -4.385   8.303  12.835  1.00  0.00     0.011 C 
HETATM    8  C12 UNL     1      -5.870   8.124  13.198  1.00  0.00     0.011 C 
HETATM    9  C13 UNL     1      -6.165   6.929  14.098  1.00  0.00    -0.028 C 
HETATM   10  C14 UNL     1      -6.107   5.649  13.215  1.00  0.00     0.016 C 
HETATM   11  C15 UNL     1      -7.506   7.008  14.910  1.00  0.00     0.057 C 
HETATM   12  C24 UNL     1      -7.247   6.060  16.112  1.00  0.00     0.126 C 
HETATM   13  C25 UNL     1      -5.716   5.873  16.215  1.00  0.00     0.042 C 
HETATM   14  C26 UNL     1      -5.103   6.926  15.264  1.00  0.00    -0.029 C 
HETATM   15  C27 UNL     1      -5.010   8.271  16.051  1.00  0.00     0.016 C 
HETATM   16  C28 UNL     1      -3.706   6.544  14.703  1.00  0.00     0.006 C 
HETATM   17  C29 UNL     1      -2.588   6.441  15.768  1.00  0.00     0.038 C 
HETATM   18  C30 UNL     1      -1.448   7.449  15.651  1.00  0.00     0.124 C 
HETATM   19  C31 UNL     1      -0.796   7.373  14.255  1.00  0.00     0.034 C 
HETATM   20  C32 UNL     1       0.570   8.148  14.118  1.00  0.00    -0.015 C 
HETATM   21  C33 UNL     1       1.663   7.353  14.890  1.00  0.00     0.018 C 
HETATM   22  C34 UNL     1       0.586   9.567  14.730  1.00  0.00     0.018 C 
ENDROOT
BRANCH   1  23
HETATM   23  O3  UNL     1       1.296   6.887  12.170  1.00  0.00    -0.352 OA
BRANCH  23  24
HETATM   24  C4  UNL     1       2.616   6.756  11.613  1.00  0.00     0.292 C 
HETATM   25  C3  UNL     1       2.678   7.673  10.374  1.00  0.00     0.218 C 
HETATM   26  C37 UNL     1       4.090   7.689   9.750  1.00  0.00     0.183 C 
HETATM   27  C36 UNL     1       5.175   7.295  10.757  1.00  0.00     0.173 C 
HETATM   28  C35 UNL     1       4.756   7.734  12.158  1.00  0.00     0.205 C 
HETATM   29  O8  UNL     1       3.584   7.060  12.617  1.00  0.00    -0.356 OA
BRANCH  25  30
HETATM   30  O2  UNL     1       1.707   7.184   9.404  1.00  0.00    -0.309 OA
BRANCH  30  31
HETATM   31  C2  UNL     1       2.188   6.474   8.358  1.00  0.00     0.255 C 
HETATM   32  C1  UNL     1       1.946   7.193   7.067  1.00  0.00     0.126 C 
HETATM   33  O1  UNL     1       2.705   5.368   8.442  1.00  0.00    -0.266 OA
ENDBRANCH  30  31
ENDBRANCH  25  30
BRANCH  26  34
HETATM   34  O10 UNL     1       4.382   9.014   9.270  1.00  0.00    -0.390 OA
HETATM   35  H60 UNL     1       3.639   9.267   8.674  1.00  0.00     0.210 HD
ENDBRANCH  26  34
BRANCH  27  36
HETATM   36  O9  UNL     1       5.351   5.873  10.723  1.00  0.00    -0.391 OA
HETATM   37  H58 UNL     1       5.987   5.645  11.425  1.00  0.00     0.210 HD
ENDBRANCH  27  36
ENDBRANCH  23  24
ENDBRANCH   1  23
BRANCH  18  38
HETATM   38  O7  UNL     1      -1.913   8.756  15.969  1.00  0.00    -0.395 OA
HETATM   39  H47 UNL     1      -2.439   9.064  15.212  1.00  0.00     0.210 HD
ENDBRANCH  18  38
BRANCH  11  40
HETATM   40  C16 UNL     1      -8.916   6.962  14.240  1.00  0.00     0.065 C 
HETATM   41  C17 UNL     1      -9.055   6.175  12.938  1.00  0.00     0.046 C 
HETATM   42  C18 UNL     1     -10.006   6.506  15.233  1.00  0.00     0.041 C 
HETATM   43  C19 UNL     1     -10.384   7.780  15.948  1.00  0.00     0.038 C 
HETATM   44  C20 UNL     1     -10.308   8.797  14.819  1.00  0.00     0.156 C 
HETATM   45  O5  UNL     1      -9.269   8.338  13.925  1.00  0.00    -0.372 OA
BRANCH  44  46
HETATM   46  C21 UNL     1     -10.069  10.259  15.267  1.00  0.00     0.076 C 
HETATM   47  C22 UNL     1     -10.479  10.450  16.729  1.00  0.00     0.048 C 
HETATM   48  C23 UNL     1     -10.837  11.235  14.368  1.00  0.00     0.048 C 
BRANCH  46  49
HETATM   49  O4  UNL     1      -8.672  10.576  15.176  1.00  0.00    -0.388 OA
HETATM   50  H35 UNL     1      -8.566  11.530  15.331  1.00  0.00     0.210 HD
ENDBRANCH  46  49
ENDBRANCH  44  46
ENDBRANCH  11  40
BRANCH  12  51
HETATM   51  O6  UNL     1      -7.880   4.801  15.962  1.00  0.00    -0.395 OA
HETATM   52  H37 UNL     1      -7.623   4.241  16.713  1.00  0.00     0.210 HD
ENDBRANCH  12  51
TORSDOF 11
ENDMDL
