MODEL 1
REMARK minimizedAffinity -8.50669765
REMARK CNNscore 0.819404066
REMARK CNNaffinity 7.7893281
REMARK  11 active torsions:
REMARK  status: ('A' for Active; 'I' for Inactive)
REMARK    1  A    between atoms: O1_2  and  C2_3 
REMARK    2  A    between atoms: C4_5  and  O2_6 
REMARK    3  A    between atoms: O2_6  and  C5_7 
REMARK    4  A    between atoms: C8_10  and  C9_11 
REMARK    5  A    between atoms: N1_12  and  C10_14 
REMARK    6  A    between atoms: C10_14  and  C11_15 
REMARK    7  A    between atoms: C11_15  and  O3_16 
REMARK    8  A    between atoms: C17_22  and  C18_23 
REMARK    9  A    between atoms: C24_31  and  O6_32 
REMARK   10  A    between atoms: C28_36  and  O7_37 
REMARK   11  A    between atoms: C32_42  and  O9_43 
ROOT
HETATM    1  C5  UNL     1      -0.793  51.785 -22.384  1.00  0.00     0.127 C 
HETATM    2  C6  UNL     1      -2.015  52.039 -23.269  1.00  0.00     0.033 C 
HETATM    3  C7  UNL     1      -3.309  51.457 -22.691  1.00  0.00     0.021 C 
HETATM    4  C8  UNL     1      -3.192  49.946 -22.331  1.00  0.00     0.026 C 
HETATM    5  C12 UNL     1      -4.528  49.472 -21.608  1.00  0.00     0.009 C 
HETATM    6  C13 UNL     1      -5.597  48.980 -22.608  1.00  0.00     0.007 C 
HETATM    7  C14 UNL     1      -6.887  48.525 -21.939  1.00  0.00     0.013 C 
HETATM    8  C15 UNL     1      -6.655  47.381 -20.930  1.00  0.00    -0.005 C 
HETATM    9  C16 UNL     1      -6.282  46.079 -21.668  1.00  0.00     0.019 C 
HETATM   10  C17 UNL     1      -7.911  47.163 -20.017  1.00  0.00     0.028 C 
HETATM   11  C22 UNL     1      -7.786  48.255 -18.932  1.00  0.00     0.013 C 
HETATM   12  C23 UNL     1      -6.339  48.749 -18.958  1.00  0.00     0.040 C 
HETATM   13  C24 UNL     1      -5.574  47.789 -19.891  1.00  0.00     0.070 C 
HETATM   14  C25 UNL     1      -4.283  48.461 -20.444  1.00  0.00     0.026 C 
HETATM   15  C26 UNL     1      -3.121  47.516 -20.787  1.00  0.00     0.011 C 
HETATM   16  C27 UNL     1      -1.792  48.276 -20.960  1.00  0.00     0.039 C 
HETATM   17  C28 UNL     1      -1.961  49.751 -21.394  1.00  0.00     0.073 C 
HETATM   18  C29 UNL     1      -0.670  50.297 -22.027  1.00  0.00     0.071 C 
ENDROOT
BRANCH   1  19
HETATM   19  O2  UNL     1       0.360  52.196 -23.129  1.00  0.00    -0.356 OA
BRANCH  19  20
HETATM   20  C4  UNL     1       0.116  52.356 -24.527  1.00  0.00     0.263 C 
HETATM   21  C3  UNL     1      -0.941  51.317 -24.906  1.00  0.00     0.095 C 
HETATM   22  C2  UNL     1      -1.234  51.363 -26.400  1.00  0.00     0.156 C 
HETATM   23  C32 UNL     1       0.080  51.256 -27.197  1.00  0.00     0.175 C 
HETATM   24  C30 UNL     1       1.101  52.285 -26.684  1.00  0.00     0.151 C 
HETATM   25  O8  UNL     1       1.308  52.131 -25.276  1.00  0.00    -0.354 OA
HETATM   26  C31 UNL     1       2.454  52.112 -27.366  1.00  0.00     0.042 C 
BRANCH  22  27
HETATM   27  O1  UNL     1      -1.861  52.602 -26.786  1.00  0.00    -0.388 OA
HETATM   28  C1  UNL     1      -1.152  53.305 -27.800  1.00  0.00     0.202 C 
ENDBRANCH  22  27
BRANCH  23  29
HETATM   29  O9  UNL     1      -0.192  51.462 -28.588  1.00  0.00    -0.390 OA
HETATM   30  H49 UNL     1      -0.865  52.174 -28.614  1.00  0.00     0.210 HD
ENDBRANCH  23  29
ENDBRANCH  19  20
ENDBRANCH   1  19
BRANCH  17  31
HETATM   31  O7  UNL     1      -2.180  50.522 -20.193  1.00  0.00    -0.389 OA
HETATM   32  H41 UNL     1      -1.383  50.453 -19.638  1.00  0.00     0.210 HD
ENDBRANCH  17  31
BRANCH   4  33
HETATM   33  C9  UNL     1      -2.961  49.133 -23.622  1.00  0.00     0.068 C 
HETATM   34  N1  UNL     1      -3.670  49.313 -24.686  1.00  0.00    -0.399 N 
ATOM     35  H1  UNL     1      -4.404  50.018 -24.754  1.00  0.00     0.158 HD
BRANCH  34  36
HETATM   36  C10 UNL     1      -3.322  48.406 -25.791  1.00  0.00     0.144 C 
BRANCH  36  37
HETATM   37  C11 UNL     1      -4.456  48.456 -26.814  1.00  0.00     0.183 C 
BRANCH  37  38
HETATM   38  O3  UNL     1      -3.905  48.606 -28.123  1.00  0.00    -0.399 OA
HETATM   39  H18 UNL     1      -3.194  47.936 -28.159  1.00  0.00     0.209 HD
ENDBRANCH  37  38
ENDBRANCH  36  37
ENDBRANCH  34  36
ENDBRANCH   4  33
BRANCH  13  40
HETATM   40  O6  UNL     1      -5.223  46.650 -19.094  1.00  0.00    -0.389 OA
HETATM   41  H35 UNL     1      -4.637  46.957 -18.379  1.00  0.00     0.210 HD
ENDBRANCH  13  40
BRANCH  10  42
HETATM   42  C18 UNL     1      -9.265  47.067 -20.677  1.00  0.00    -0.045 A 
HETATM   43  C19 UNL     1     -10.454  47.459 -20.215  1.00  0.00     0.087 A 
HETATM   44  C20 UNL     1     -11.465  47.057 -21.190  1.00  0.00     0.283 A 
HETATM   45  O4  UNL     1     -12.658  47.270 -21.081  1.00  0.00    -0.260 OA
HETATM   46  O5  UNL     1     -10.857  46.406 -22.214  1.00  0.00    -0.314 OA
HETATM   47  C21 UNL     1      -9.448  46.388 -21.986  1.00  0.00     0.213 A 
ENDBRANCH  10  42
TORSDOF 11
ENDMDL
