MODEL 1
REMARK minimizedAffinity -9.85773373
REMARK  4 active torsions:
REMARK  status: ('A' for Active; 'I' for Inactive)
REMARK    1  A    between atoms: C4_4  and  C5_5 
REMARK    2  A    between atoms: C5_5  and  C6_7 
REMARK    3  A    between atoms: C6_7  and  C7_8 
REMARK    4  A    between atoms: C7_8  and  C9_10 
ROOT
HETATM    1  C9  UNL     1      -3.901  50.168 -24.593  1.00  0.00    -0.002 C 
HETATM    2  C10 UNL     1      -5.315  49.986 -23.959  1.00  0.00     0.006 C 
HETATM    3  C11 UNL     1      -5.150  50.077 -22.427  1.00  0.00     0.011 C 
HETATM    4  C12 UNL     1      -3.743  50.667 -22.220  1.00  0.00    -0.032 C 
HETATM    5  C13 UNL     1      -3.901  52.215 -22.416  1.00  0.00     0.016 C 
HETATM    6  C14 UNL     1      -3.096  50.340 -20.826  1.00  0.00     0.004 C 
HETATM    7  C15 UNL     1      -3.519  51.325 -19.714  1.00  0.00     0.007 C 
HETATM    8  C16 UNL     1      -2.980  51.001 -18.315  1.00  0.00     0.007 C 
HETATM    9  C17 UNL     1      -1.759  50.063 -18.288  1.00  0.00     0.010 C 
HETATM   10  C18 UNL     1      -0.965  50.084 -16.948  1.00  0.00     0.018 C 
HETATM   11  C19 UNL     1      -1.912  50.033 -15.733  1.00  0.00     0.023 C 
HETATM   12  C20 UNL     1      -0.024  48.865 -16.855  1.00  0.00     0.023 C 
HETATM   13  C21 UNL     1      -0.107  51.350 -16.851  1.00  0.00     0.135 C 
HETATM   14  O2  UNL     1       0.318  51.765 -15.770  1.00  0.00    -0.297 OA
HETATM   15  C22 UNL     1       0.197  52.106 -18.123  1.00  0.00     0.080 C 
HETATM   16  C23 UNL     1       0.371  51.150 -19.287  1.00  0.00     0.018 C 
HETATM   17  C24 UNL     1      -0.866  50.303 -19.518  1.00  0.00    -0.026 A 
HETATM   18  C25 UNL     1      -0.755  49.113 -20.435  1.00  0.00     0.021 A 
HETATM   19  C26 UNL     1      -1.551  50.316 -20.906  1.00  0.00    -0.027 A 
HETATM   20  C27 UNL     1      -0.946  51.022 -22.112  1.00  0.00     0.011 C 
HETATM   21  C28 UNL     1      -1.549  50.588 -23.466  1.00  0.00     0.011 C 
HETATM   22  C29 UNL     1      -2.947  49.944 -23.377  1.00  0.00    -0.032 C 
HETATM   23  C30 UNL     1      -2.782  48.417 -23.149  1.00  0.00     0.016 C 
ENDROOT
BRANCH   1  24
HETATM   24  C7  UNL     1      -3.755  49.476 -25.982  1.00  0.00    -0.007 C 
HETATM   25  C8  UNL     1      -4.633  48.258 -26.281  1.00  0.00     0.011 C 
BRANCH  24  26
HETATM   26  C6  UNL     1      -2.293  49.320 -26.463  1.00  0.00     0.087 C 
BRANCH  26  27
HETATM   27  C5  UNL     1      -1.527  50.565 -26.879  1.00  0.00     0.149 C 
HETATM   28  O1  UNL     1      -2.037  51.482 -27.520  1.00  0.00    -0.293 OA
BRANCH  27  29
HETATM   29  C4  UNL     1      -0.086  50.714 -26.513  1.00  0.00     0.052 C 
HETATM   30  C2  UNL     1       0.898  51.416 -27.106  1.00  0.00    -0.084 C 
HETATM   31  C1  UNL     1       2.274  51.441 -26.487  1.00  0.00     0.043 C 
HETATM   32  C3  UNL     1       0.797  52.177 -28.397  1.00  0.00     0.043 C 
ENDBRANCH  27  29
ENDBRANCH  26  27
ENDBRANCH  24  26
ENDBRANCH   1  24
TORSDOF 4
ENDMDL
