MODEL 1
REMARK minimizedAffinity -9.24342728
REMARK  10 active torsions:
REMARK  status: ('A' for Active; 'I' for Inactive)
REMARK    1  A    between atoms: C12_14  and  C13_15 
REMARK    2  A    between atoms: C13_15  and  C15_17 
REMARK    3  A    between atoms: C15_17  and  C16_18 
REMARK    4  A    between atoms: C16_18  and  C17_19 
REMARK    5  A    between atoms: C18_20  and  C20_22 
REMARK    6  A    between atoms: C20_22  and  O3_23 
REMARK    7  A    between atoms: C26_29  and  C27_30 
REMARK    8  A    between atoms: C27_30  and  C28_31 
REMARK    9  A    between atoms: C28_31  and  C29_32 
REMARK   10  A    between atoms: C29_32  and  O5_34 
ROOT
HETATM    1  C1  UNL     1      -3.016  51.260 -27.961  1.00  0.00     0.025 C 
HETATM    2  C2  UNL     1      -2.954  50.146 -27.221  1.00  0.00     0.015 C 
HETATM    3  C3  UNL     1      -3.743  48.947 -27.592  1.00  0.00     0.289 C 
HETATM    4  O1  UNL     1      -4.328  48.756 -28.642  1.00  0.00    -0.260 OA
HETATM    5  O2  UNL     1      -3.690  48.080 -26.546  1.00  0.00    -0.311 OA
HETATM    6  C4  UNL     1      -3.085  48.717 -25.405  1.00  0.00     0.142 C 
HETATM    7  C5  UNL     1      -4.196  49.185 -24.473  1.00  0.00     0.039 C 
HETATM    8  C6  UNL     1      -3.747  50.025 -23.269  1.00  0.00     0.006 C 
HETATM    9  C7  UNL     1      -2.661  51.081 -23.613  1.00  0.00    -0.027 A 
HETATM   10  C8  UNL     1      -2.161  51.879 -22.388  1.00  0.00     0.011 C 
HETATM   11  C9  UNL     1      -1.892  51.053 -21.122  1.00  0.00     0.011 C 
HETATM   12  C10 UNL     1      -3.097  50.164 -20.772  1.00  0.00    -0.032 C 
HETATM   13  C11 UNL     1      -4.309  51.087 -20.460  1.00  0.00     0.016 C 
HETATM   14  C12 UNL     1      -2.921  49.141 -19.603  1.00  0.00    -0.002 C 
HETATM   15  C21 UNL     1      -3.925  48.006 -19.974  1.00  0.00     0.006 C 
HETATM   16  C22 UNL     1      -4.371  48.243 -21.431  1.00  0.00     0.011 C 
HETATM   17  C23 UNL     1      -3.316  49.199 -22.010  1.00  0.00    -0.032 C 
HETATM   18  C24 UNL     1      -2.066  48.329 -22.361  1.00  0.00     0.016 C 
HETATM   19  C25 UNL     1      -2.904  52.017 -24.771  1.00  0.00     0.022 A 
HETATM   20  C26 UNL     1      -1.864  50.934 -24.958  1.00  0.00    -0.021 A 
HETATM   21  C30 UNL     1      -2.210  49.826 -25.963  1.00  0.00     0.063 C 
ENDROOT
BRANCH  14  22
HETATM   22  C13 UNL     1      -2.963  49.528 -18.092  1.00  0.00    -0.014 C 
HETATM   23  C14 UNL     1      -3.018  51.026 -17.754  1.00  0.00     0.010 C 
BRANCH  22  24
HETATM   24  C15 UNL     1      -1.856  48.876 -17.231  1.00  0.00     0.008 C 
BRANCH  24  25
HETATM   25  C16 UNL     1      -0.407  49.163 -17.649  1.00  0.00     0.028 C 
BRANCH  25  26
HETATM   26  C17 UNL     1       0.322  50.068 -16.696  1.00  0.00    -0.022 C 
HETATM   27  C18 UNL     1       0.723  51.340 -16.906  1.00  0.00    -0.064 C 
HETATM   28  C19 UNL     1       0.461  52.103 -18.179  1.00  0.00     0.045 C 
BRANCH  27  29
HETATM   29  C20 UNL     1       1.490  52.149 -15.880  1.00  0.00     0.197 C 
BRANCH  29  30
HETATM   30  O3  UNL     1       2.044  53.333 -16.435  1.00  0.00    -0.397 OA
HETATM   31  H29 UNL     1       2.659  53.045 -17.129  1.00  0.00     0.209 HD
ENDBRANCH  29  30
ENDBRANCH  27  29
ENDBRANCH  25  26
ENDBRANCH  24  25
ENDBRANCH  22  24
ENDBRANCH  14  22
BRANCH  20  32
HETATM   32  C27 UNL     1      -0.364  51.267 -24.933  1.00  0.00     0.021 C 
BRANCH  32  33
HETATM   33  C28 UNL     1       0.184  51.865 -26.227  1.00  0.00     0.111 C 
BRANCH  33  34
HETATM   34  C29 UNL     1      -0.004  53.349 -26.384  1.00  0.00     0.139 C 
HETATM   35  O4  UNL     1      -0.713  53.885 -27.220  1.00  0.00    -0.650 OA
BRANCH  34  36
HETATM   36  O5  UNL     1       0.616  54.088 -25.448  1.00  0.00    -0.776 OA
HETATM   37  H43 UNL     1       0.348  55.008 -25.658  1.00  0.00     0.167 HD
ENDBRANCH  34  36
ENDBRANCH  33  34
ENDBRANCH  32  33
ENDBRANCH  20  32
TORSDOF 10
ENDMDL
