MODEL 1
REMARK minimizedAffinity -7.68493414
REMARK CNNscore 0.121629767
REMARK CNNaffinity 6.11792135
REMARK  12 active torsions:
REMARK  status: ('A' for Active; 'I' for Inactive)
REMARK    1  A    between atoms: C2_2  and  C3_3 
REMARK    2  A    between atoms: C5_5  and  S1_6 
REMARK    3  A    between atoms: C14_18  and  C15_19 
REMARK    4  A    between atoms: C15_19  and  O4_20 
REMARK    5  A    between atoms: C21_26  and  O5_27 
REMARK    6  A    between atoms: C33_40  and  C34_41 
REMARK    7  A    between atoms: C33_40  and  N1_52 
REMARK    8  A    between atoms: C34_41  and  C35_42 
REMARK    9  A    between atoms: C35_42  and  C36_43 
REMARK   10  A    between atoms: C35_42  and  C37_45 
REMARK   11  A    between atoms: C36_43  and  O7_44 
REMARK   12  A    between atoms: C37_45  and  C38_46 
REMARK       I    between atoms: C44_54  and  N2_55 
REMARK       I    between atoms: C44_54  and  N3_56 
ROOT
HETATM    1  C3  UNL     1      10.931  15.669  18.895  1.00  0.00     0.019 C 
HETATM    2  C4  UNL     1       9.599  14.860  18.993  1.00  0.00     0.033 C 
HETATM    3  C5  UNL     1       9.746  13.317  18.957  1.00  0.00     0.139 C 
HETATM    4  C6  UNL     1       8.462  12.525  18.544  1.00  0.00     0.038 C 
HETATM    5  C7  UNL     1       7.253  12.676  19.458  1.00  0.00    -0.014 C 
HETATM    6  C8  UNL     1       6.126  12.013  19.117  1.00  0.00    -0.050 C 
HETATM    7  C9  UNL     1       6.201  11.161  17.875  1.00  0.00     0.042 C 
HETATM    8  C10 UNL     1       6.504  12.190  16.784  1.00  0.00     0.001 C 
HETATM    9  C11 UNL     1       5.433  13.344  16.778  1.00  0.00     0.037 C 
HETATM   10  C12 UNL     1       3.991  13.038  17.270  1.00  0.00     0.123 C 
HETATM   11  C13 UNL     1       3.189  12.308  16.166  1.00  0.00     0.039 C 
HETATM   12  C14 UNL     1       1.677  12.002  16.387  1.00  0.00     0.023 C 
HETATM   13  C16 UNL     1       1.349  10.657  17.089  1.00  0.00     0.101 C 
HETATM   14  C17 UNL     1       1.794  10.526  18.477  1.00  0.00    -0.101 C 
HETATM   15  C18 UNL     1       2.322  10.526  19.558  1.00  0.00    -0.066 C 
HETATM   16  C19 UNL     1       3.129  10.691  20.732  1.00  0.00     0.029 A 
HETATM   17  C20 UNL     1       2.781   9.952  21.870  1.00  0.00     0.057 A 
HETATM   18  C21 UNL     1       3.537  10.060  23.031  1.00  0.00     0.067 A 
HETATM   19  C22 UNL     1       4.635  10.906  23.087  1.00  0.00     0.037 A 
HETATM   20  C23 UNL     1       4.985  11.649  21.958  1.00  0.00     0.014 A 
HETATM   21  C24 UNL     1       4.254  11.553  20.753  1.00  0.00    -0.006 A 
HETATM   22  C25 UNL     1       4.739  12.402  19.568  1.00  0.00     0.185 C 
HETATM   23  O6  UNL     1       3.877  12.255  18.444  1.00  0.00    -0.371 OA
HETATM   24  C26 UNL     1       7.940  12.816  17.063  1.00  0.00     0.030 C 
HETATM   25  C27 UNL     1       8.916  12.527  15.931  1.00  0.00    -0.057 C 
HETATM   26  C28 UNL     1       9.936  11.582  16.028  1.00  0.00     0.092 A 
HETATM   27  C29 UNL     1      11.006  11.614  15.131  1.00  0.00     0.096 A 
HETATM   28  C30 UNL     1      11.064  12.562  14.091  1.00  0.00    -0.007 C 
HETATM   29  C31 UNL     1       9.928  13.363  13.881  1.00  0.00     0.010 C 
HETATM   30  C32 UNL     1       8.872  13.347  14.793  1.00  0.00     0.005 C 
HETATM   31  C33 UNL     1      12.412  12.869  13.389  1.00  0.00     0.169 C 
HETATM   32  O8  UNL     1      12.896  14.224  13.766  1.00  0.00    -0.316 OA
HETATM   33  C45 UNL     1      12.592  14.666  15.028  1.00  0.00     0.072 C 
HETATM   34  C46 UNL     1      11.722  15.751  15.132  1.00  0.00     0.037 C 
HETATM   35  C47 UNL     1      11.200  16.112  16.377  1.00  0.00     0.010 C 
HETATM   36  C48 UNL     1      11.601  15.440  17.539  1.00  0.00    -0.054 C 
HETATM   37  C49 UNL     1      12.592  14.450  17.426  1.00  0.00     0.010 C 
HETATM   38  C50 UNL     1      13.079  14.056  16.177  1.00  0.00     0.037 C 
HETATM   39 NA1  UNL     1       8.843  12.445  16.105  1.00  0.00    -0.355 Na
ATOM     40 1HA1 UNL     1       8.179  13.099  16.519  1.00  0.00     0.103 HD
ATOM     41 2HA1 UNL     1       7.866  12.737  16.134  1.00  0.00     0.103 HD
ENDROOT
BRANCH  31  42
HETATM   42  C34 UNL     1      12.235  13.023  11.836  1.00  0.00     0.074 C 
BRANCH  42  43
HETATM   43  C35 UNL     1      11.843  11.847  10.897  1.00  0.00     0.018 C 
BRANCH  43  44
HETATM   44  C36 UNL     1      12.935  11.413   9.909  1.00  0.00     0.169 C 
BRANCH  44  45
HETATM   45  O7  UNL     1      13.939  10.599  10.487  1.00  0.00    -0.400 OA
HETATM   46  H41 UNL     1      13.618   9.680  10.502  1.00  0.00     0.209 HD
ENDBRANCH  44  45
ENDBRANCH  43  44
BRANCH  43  47
HETATM   47  C37 UNL     1      10.456  12.017  10.243  1.00  0.00     0.045 C 
BRANCH  47  48
HETATM   48  C38 UNL     1      10.513  11.982   8.730  1.00  0.00    -0.058 A 
HETATM   49  C39 UNL     1      10.937  13.109   8.011  1.00  0.00     0.007 A 
HETATM   50  C40 UNL     1      10.978  13.084   6.615  1.00  0.00     0.001 A 
HETATM   51  C41 UNL     1      10.592  11.935   5.927  1.00  0.00     0.000 A 
HETATM   52  C42 UNL     1      10.170  10.810   6.635  1.00  0.00     0.001 A 
HETATM   53  C43 UNL     1      10.127  10.833   8.030  1.00  0.00     0.007 A 
ENDBRANCH  47  48
ENDBRANCH  43  47
ENDBRANCH  42  43
ENDBRANCH  31  42
BRANCH  31  54
HETATM   54  N1  UNL     1      13.360  11.756  13.571  1.00  0.00    -0.336 N 
HETATM   55  C44 UNL     1      14.623  11.901  13.531  1.00  0.00     0.124 C 
HETATM   56  N2  UNL     1      15.419  10.821  13.695  1.00  0.00    -0.279 NA
HETATM   57  N3  UNL     1      15.381  13.001  13.365  1.00  0.00    -0.279 NA
HETATM   58  H49 UNL     1      16.152  10.999  14.376  1.00  0.00     0.126 HD
HETATM   59  H50 UNL     1      14.859  10.027  13.993  1.00  0.00     0.126 HD
HETATM   60  H51 UNL     1      16.207  12.864  12.802  1.00  0.00     0.126 HD
HETATM   61  H52 UNL     1      14.858  13.845  13.135  1.00  0.00     0.126 HD
ATOM     62  H1  UNL     1      12.984  10.822  13.738  1.00  0.00     0.165 HD
ENDBRANCH  31  54
BRANCH   1  63
HETATM   63  C2  UNL     1      10.651  17.158  19.212  1.00  0.00     0.005 C 
HETATM   64  C1  UNL     1      11.138  17.580  20.593  1.00  0.00     0.006 C 
ENDBRANCH   1  63
BRANCH   3  65
HETATM   65  S1  UNL     1      10.408  12.667  20.528  1.00  0.00     0.106 S 
HETATM   66  O1  UNL     1      11.855  12.593  20.312  1.00  0.00    -0.595 OA
HETATM   67  O2  UNL     1      10.001  13.655  21.527  1.00  0.00    -0.595 OA
HETATM   68  O3  UNL     1       9.779  11.355  20.670  1.00  0.00    -0.595 OA
ENDBRANCH   3  65
BRANCH  12  69
HETATM   69  C15 UNL     1       0.844  13.185  16.904  1.00  0.00     0.169 C 
BRANCH  69  70
HETATM   70  O4  UNL     1       1.116  13.528  18.246  1.00  0.00    -0.400 OA
HETATM   71  H23 UNL     1       0.382  14.064  18.582  1.00  0.00     0.209 HD
ENDBRANCH  69  70
ENDBRANCH  12  69
BRANCH  18  72
HETATM   72  O5  UNL     1       3.180   9.299  24.105  1.00  0.00    -0.361 OA
HETATM   73  H27 UNL     1       3.839   9.447  24.804  1.00  0.00     0.217 HD
ENDBRANCH  18  72
TORSDOF 12
ENDMDL
