MODEL 1
REMARK minimizedAffinity -10.3408003
REMARK  6 active torsions:
REMARK  status: ('A' for Active; 'I' for Inactive)
REMARK    1  A    between atoms: C3_3  and  O1_4 
REMARK    2  A    between atoms: N1_14  and  O2_16 
REMARK    3  A    between atoms: O2_16  and  C13_17 
REMARK    4  A    between atoms: C13_17  and  C14_18 
REMARK       I    between atoms: C14_18  and  N2_20 
REMARK    5  A    between atoms: N2_20  and  C15_21 
REMARK    6  A    between atoms: C15_21  and  C17_23 
ROOT
HETATM    1  C1  UNL     1       2.157  50.944 -26.272  1.00  0.00     0.015 C 
HETATM    2  C2  UNL     1       1.184  51.618 -26.063  1.00  0.00    -0.078 C 
HETATM    3  C3  UNL     1      -0.012  52.453 -25.824  1.00  0.00     0.128 C 
HETATM    4  C4  UNL     1       0.407  53.946 -25.718  1.00  0.00     0.052 C 
HETATM    5  C5  UNL     1       0.483  54.278 -24.212  1.00  0.00     0.010 C 
HETATM    6  C6  UNL     1       0.260  52.944 -23.504  1.00  0.00     0.002 C 
HETATM    7  C7  UNL     1      -0.216  52.959 -22.045  1.00  0.00    -0.004 C 
HETATM    8  C8  UNL     1       0.763  53.728 -21.149  1.00  0.00     0.010 C 
HETATM    9  C9  UNL     1       0.303  53.721 -19.697  1.00  0.00     0.035 C 
HETATM   10  C10 UNL     1       0.074  52.321 -19.177  1.00  0.00    -0.069 C 
HETATM   11  C11 UNL     1       0.622  51.951 -18.006  1.00  0.00     0.030 C 
HETATM   12  C12 UNL     1       0.322  50.641 -17.374  1.00  0.00     0.032 C 
HETATM   13  N1  UNL     1       0.918  50.358 -16.250  1.00  0.00    -0.271 N 
ATOM     14  H1  UNL     1       1.613  50.955 -15.804  1.00  0.00     0.194 HD
HETATM   15  C23 UNL     1      -0.710  49.759 -18.044  1.00  0.00     0.060 C 
HETATM   16  C24 UNL     1      -0.661  49.931 -19.555  1.00  0.00     0.020 C 
HETATM   17  C25 UNL     1      -0.814  51.406 -20.030  1.00  0.00    -0.016 C 
HETATM   18  C26 UNL     1      -2.283  51.844 -19.840  1.00  0.00     0.020 C 
HETATM   19  C27 UNL     1      -0.361  51.490 -21.539  1.00  0.00     0.002 C 
HETATM   20  C28 UNL     1      -1.220  50.624 -22.501  1.00  0.00     0.007 C 
HETATM   21  C29 UNL     1      -0.780  50.726 -23.973  1.00  0.00     0.014 C 
HETATM   22  C30 UNL     1      -0.700  52.188 -24.447  1.00  0.00     0.003 C 
HETATM   23  C31 UNL     1      -2.143  52.776 -24.463  1.00  0.00     0.020 C 
ENDROOT
BRANCH   3  24
HETATM   24  O1  UNL     1      -0.893  52.238 -26.917  1.00  0.00    -0.377 OA
HETATM   25  H2  UNL     1      -1.499  52.992 -26.979  1.00  0.00     0.211 HD
ENDBRANCH   3  24
BRANCH  13  26
HETATM   26  O2  UNL     1       0.484  49.131 -15.732  1.00  0.00    -0.271 OA
BRANCH  26  27
HETATM   27  C13 UNL     1       0.130  49.306 -14.362  1.00  0.00     0.303 C 
BRANCH  27  28
HETATM   28  C14 UNL     1      -1.321  49.760 -14.240  1.00  0.00     0.244 C 
HETATM   29  O3  UNL     1      -2.102  49.724 -15.187  1.00  0.00    -0.271 OA
HETATM   30  N2  UNL     1      -1.687  50.164 -12.976  1.00  0.00    -0.351 N 
HETATM   31  H16 UNL     1      -0.939  50.295 -12.302  1.00  0.00     0.163 HD
BRANCH  30  32
HETATM   32  C15 UNL     1      -3.002  50.694 -12.665  1.00  0.00     0.113 C 
HETATM   33  C16 UNL     1      -3.870  49.657 -11.946  1.00  0.00     0.037 C 
BRANCH  32  34
HETATM   34  C17 UNL     1      -2.853  51.975 -11.861  1.00  0.00    -0.036 A 
HETATM   35  C18 UNL     1      -1.579  52.524 -11.652  1.00  0.00     0.009 A 
HETATM   36  C19 UNL     1      -1.419  53.686 -10.895  1.00  0.00     0.001 A 
HETATM   37  C20 UNL     1      -2.528  54.310 -10.331  1.00  0.00     0.000 A 
HETATM   38  C21 UNL     1      -3.799  53.772 -10.520  1.00  0.00     0.001 A 
HETATM   39  C22 UNL     1      -3.961  52.610 -11.277  1.00  0.00     0.009 A 
ENDBRANCH  32  34
ENDBRANCH  30  32
ENDBRANCH  27  28
ENDBRANCH  26  27
ENDBRANCH  13  26
TORSDOF 6
ENDMDL
