MODEL 1
REMARK minimizedAffinity -7.43419886
REMARK CNNscore 0.626620948
REMARK CNNaffinity 7.00421
REMARK  7 active torsions:
REMARK  status: ('A' for Active; 'I' for Inactive)
REMARK    1  A    between atoms: C4_4  and  C5_5 
REMARK    2  A    between atoms: C5_5  and  O1_6 
REMARK    3  A    between atoms: C5_5  and  C6_7 
REMARK    4  A    between atoms: C6_7  and  C7_8 
REMARK    5  A    between atoms: C7_8  and  C8_9 
REMARK    6  A    between atoms: C7_8  and  C9_11 
REMARK    7  A    between atoms: C8_9  and  O2_10 
ROOT
HETATM    1  C9  UNL     1      -1.437  52.652 -10.839  1.00  0.00     0.001 C 
HETATM    2  C10 UNL     1      -2.366  52.338  -9.631  1.00  0.00     0.007 C 
HETATM    3  C11 UNL     1      -1.758  53.044  -8.408  1.00  0.00     0.015 C 
HETATM    4  C12 UNL     1      -0.301  53.347  -8.812  1.00  0.00    -0.013 C 
HETATM    5  C13 UNL     1       0.499  52.027  -8.589  1.00  0.00     0.021 C 
HETATM    6  C14 UNL     1       0.444  54.438  -8.068  1.00  0.00    -0.070 C 
HETATM    7  C15 UNL     1       0.083  54.925  -6.871  1.00  0.00    -0.022 C 
HETATM    8  C16 UNL     1       0.825  56.059  -6.240  1.00  0.00     0.034 C 
HETATM    9  C17 UNL     1       2.365  56.016  -6.432  1.00  0.00     0.013 C 
HETATM   10  C18 UNL     1       3.039  57.404  -6.169  1.00  0.00     0.018 C 
HETATM   11  C19 UNL     1       2.755  57.863  -4.718  1.00  0.00     0.023 C 
HETATM   12  C20 UNL     1       2.564  58.538  -7.095  1.00  0.00     0.023 C 
HETATM   13  C21 UNL     1       4.557  57.235  -6.318  1.00  0.00     0.135 C 
HETATM   14  O3  UNL     1       5.359  57.690  -5.497  1.00  0.00    -0.297 OA
HETATM   15  C22 UNL     1       5.090  56.495  -7.519  1.00  0.00     0.080 C 
HETATM   16  C23 UNL     1       4.012  55.980  -8.457  1.00  0.00     0.017 C 
HETATM   17  C24 UNL     1       2.839  55.256  -7.749  1.00  0.00    -0.031 C 
HETATM   18  C25 UNL     1       3.371  53.862  -7.289  1.00  0.00     0.016 C 
HETATM   19  C26 UNL     1       1.642  55.075  -8.764  1.00  0.00     0.024 C 
HETATM   20  C27 UNL     1       2.032  54.409 -10.114  1.00  0.00     0.010 C 
HETATM   21  C28 UNL     1       0.892  53.848 -10.996  1.00  0.00     0.011 C 
HETATM   22  C29 UNL     1      -0.488  53.778 -10.313  1.00  0.00    -0.029 C 
HETATM   23  C30 UNL     1      -1.165  55.171 -10.470  1.00  0.00     0.016 C 
ENDROOT
BRANCH   1  24
HETATM   24  C7  UNL     1      -2.198  52.739 -12.193  1.00  0.00     0.017 C 
BRANCH  24  25
HETATM   25  C6  UNL     1      -1.936  51.597 -13.213  1.00  0.00     0.043 C 
BRANCH  25  26
HETATM   26  C5  UNL     1      -0.553  51.665 -13.890  1.00  0.00     0.141 C 
BRANCH  26  27
HETATM   27  C4  UNL     1      -0.589  51.000 -15.238  1.00  0.00     0.006 C 
HETATM   28  C2  UNL     1       0.267  51.144 -16.269  1.00  0.00    -0.089 C 
HETATM   29  C1  UNL     1       1.483  52.030 -16.283  1.00  0.00     0.042 C 
HETATM   30  C3  UNL     1       0.049  50.383 -17.553  1.00  0.00     0.042 C 
ENDBRANCH  26  27
BRANCH  26  31
HETATM   31  O1  UNL     1       0.385  50.942 -13.095  1.00  0.00    -0.392 OA
HETATM   32  H9  UNL     1       1.170  50.798 -13.654  1.00  0.00     0.210 HD
ENDBRANCH  26  31
ENDBRANCH  25  26
ENDBRANCH  24  25
BRANCH  24  33
HETATM   33  C8  UNL     1      -3.706  52.941 -11.974  1.00  0.00     0.169 C 
BRANCH  33  34
HETATM   34  O2  UNL     1      -4.275  53.720 -13.021  1.00  0.00    -0.400 OA
HETATM   35  H15 UNL     1      -3.766  54.554 -13.059  1.00  0.00     0.209 HD
ENDBRANCH  33  34
ENDBRANCH  24  33
ENDBRANCH   1  24
TORSDOF 7
ENDMDL
