MODEL 1
REMARK minimizedAffinity -8.92801762
REMARK  7 active torsions:
REMARK  status: ('A' for Active; 'I' for Inactive)
REMARK    1  A    between atoms: C2_2  and  C3_3 
REMARK    2  A    between atoms: C2_2  and  C4_5 
REMARK    3  A    between atoms: C3_3  and  O1_4 
REMARK    4  A    between atoms: C4_5  and  C5_7 
REMARK    5  A    between atoms: C5_7  and  C6_8 
REMARK    6  A    between atoms: C6_8  and  C7_9 
REMARK    7  A    between atoms: C7_9  and  C9_11 
ROOT
HETATM    1  C9  UNL     1       0.736   8.236  13.093  1.00  0.00    -0.002 C 
HETATM    2  C10 UNL     1       0.826   9.363  14.163  1.00  0.00     0.007 C 
HETATM    3  C11 UNL     1      -0.518   9.405  14.911  1.00  0.00     0.015 C 
HETATM    4  C12 UNL     1      -1.240   8.106  14.513  1.00  0.00    -0.005 C 
HETATM    5  C13 UNL     1      -0.700   6.978  15.448  1.00  0.00     0.021 C 
HETATM    6  C14 UNL     1      -2.758   8.008  14.621  1.00  0.00    -0.000 C 
HETATM    7  C15 UNL     1      -3.473   7.197  13.799  1.00  0.00    -0.060 C 
HETATM    8  C16 UNL     1      -2.764   6.396  12.695  1.00  0.00     0.036 C 
HETATM    9  C17 UNL     1      -1.249   6.614  12.500  1.00  0.00     0.015 C 
HETATM   10  C18 UNL     1      -0.801   7.992  12.999  1.00  0.00    -0.028 C 
HETATM   11  C19 UNL     1      -1.441   9.089  12.091  1.00  0.00     0.016 C 
HETATM   12  C20 UNL     1      -5.017   7.036  13.880  1.00  0.00    -0.014 C 
HETATM   13  C21 UNL     1      -5.625   7.853  12.720  1.00  0.00     0.020 C 
HETATM   14  C22 UNL     1      -5.413   5.547  13.747  1.00  0.00     0.021 C 
HETATM   15  C23 UNL     1      -6.873   5.213  14.025  1.00  0.00     0.080 C 
HETATM   16  C24 UNL     1      -7.719   6.339  14.568  1.00  0.00     0.135 C 
HETATM   17  O3  UNL     1      -8.930   6.342  14.330  1.00  0.00    -0.297 OA
HETATM   18  C25 UNL     1      -7.083   7.386  15.490  1.00  0.00     0.018 C 
HETATM   19  C26 UNL     1      -7.815   8.729  15.265  1.00  0.00     0.023 C 
HETATM   20  C27 UNL     1      -7.378   6.930  16.935  1.00  0.00     0.023 C 
HETATM   21  C28 UNL     1      -5.533   7.486  15.283  1.00  0.00     0.020 C 
HETATM   22  C29 UNL     1      -4.956   8.851  15.664  1.00  0.00     0.090 C 
HETATM   23  C30 UNL     1      -3.451   8.796  15.686  1.00  0.00     0.157 C 
HETATM   24  O4  UNL     1      -2.822   9.411  16.545  1.00  0.00    -0.293 OA
ENDROOT
BRANCH   1  25
HETATM   25  C7  UNL     1       1.561   8.585  11.814  1.00  0.00    -0.013 C 
HETATM   26  C8  UNL     1       0.796   8.261  10.527  1.00  0.00     0.010 C 
BRANCH  25  27
HETATM   27  C6  UNL     1       2.923   7.837  11.836  1.00  0.00     0.012 C 
BRANCH  27  28
HETATM   28  C5  UNL     1       2.844   6.375  11.377  1.00  0.00     0.084 C 
BRANCH  28  29
HETATM   29  C4  UNL     1       3.857   6.050  10.287  1.00  0.00     0.157 C 
HETATM   30  O2  UNL     1       5.066   6.236  10.436  1.00  0.00    -0.293 OA
BRANCH  29  31
HETATM   31  C2  UNL     1       3.374   5.468   8.987  1.00  0.00     0.002 C 
HETATM   32  C1  UNL     1       2.654   6.180   8.103  1.00  0.00     0.025 C 
BRANCH  31  33
HETATM   33  C3  UNL     1       3.769   4.039   8.738  1.00  0.00     0.205 C 
BRANCH  33  34
HETATM   34  O1  UNL     1       3.373   3.224   9.832  1.00  0.00    -0.396 OA
HETATM   35  H5  UNL     1       3.906   3.530  10.594  1.00  0.00     0.209 HD
ENDBRANCH  33  34
ENDBRANCH  31  33
ENDBRANCH  29  31
ENDBRANCH  28  29
ENDBRANCH  27  28
ENDBRANCH  25  27
ENDBRANCH   1  25
TORSDOF 7
ENDMDL
