MODEL 1
REMARK minimizedAffinity -9.71942139
REMARK CNNscore 0.830497742
REMARK CNNaffinity 6.61785269
REMARK  9 active torsions:
REMARK  status: ('A' for Active; 'I' for Inactive)
REMARK    1  A    between atoms: N1_2  and  C2_3 
REMARK    2  A    between atoms: C2_3  and  C3_4 
REMARK    3  A    between atoms: C7_8  and  O1_9 
REMARK    4  A    between atoms: C13_15  and  O2_16 
REMARK    5  A    between atoms: C17_20  and  C18_21 
REMARK    6  A    between atoms: C18_21  and  C20_23 
REMARK    7  A    between atoms: C28_31  and  O3_32 
REMARK    8  A    between atoms: C31_35  and  C32_36 
REMARK    9  A    between atoms: C33_38  and  O5_39 
ROOT
HETATM    1  C3  UNL     1       4.809  63.383 -34.325  1.00  0.00    -0.022 C 
HETATM    2  C4  UNL     1       4.052  64.495 -34.502  1.00  0.00    -0.014 C 
HETATM    3  C5  UNL     1       4.648  65.748 -35.093  1.00  0.00     0.021 C 
HETATM    4  C6  UNL     1       3.767  66.703 -35.897  1.00  0.00     0.051 C 
HETATM    5  C7  UNL     1       4.826  67.709 -36.402  1.00  0.00     0.098 C 
HETATM    6  C8  UNL     1       6.018  66.781 -36.884  1.00  0.00    -0.002 C 
HETATM    7  C9  UNL     1       7.402  67.406 -36.651  1.00  0.00     0.019 C 
HETATM    8  C10 UNL     1       5.904  66.435 -38.402  1.00  0.00     0.013 C 
HETATM    9  C11 UNL     1       5.523  67.603 -39.308  1.00  0.00     0.010 C 
HETATM   10  C12 UNL     1       4.172  68.186 -38.850  1.00  0.00     0.041 C 
HETATM   11  C13 UNL     1       4.336  68.775 -37.437  1.00  0.00     0.095 C 
HETATM   12  C14 UNL     1       3.084  69.558 -36.993  1.00  0.00     0.049 C 
HETATM   13  C15 UNL     1       1.799  69.293 -37.813  1.00  0.00     0.025 C 
HETATM   14  C16 UNL     1       0.695  70.182 -37.162  1.00  0.00     0.012 C 
HETATM   15  C17 UNL     1      -0.796  70.070 -37.570  1.00  0.00    -0.010 C 
HETATM   16  C25 UNL     1      -1.026  69.890 -39.082  1.00  0.00     0.005 C 
HETATM   17  C26 UNL     1      -0.425  68.609 -39.643  1.00  0.00     0.010 C 
HETATM   18  C27 UNL     1       1.013  68.687 -40.174  1.00  0.00     0.050 C 
HETATM   19  C28 UNL     1       1.049  69.093 -41.668  1.00  0.00     0.125 C 
HETATM   20  C29 UNL     1       2.473  69.223 -42.199  1.00  0.00     0.033 C 
HETATM   21  C30 UNL     1       3.485  68.556 -41.281  1.00  0.00     0.023 C 
HETATM   22  C31 UNL     1       3.509  69.193 -39.847  1.00  0.00     0.051 C 
HETATM   23  C33 UNL     1       2.026  69.540 -39.347  1.00  0.00     0.082 C 
HETATM   24  C34 UNL     1       5.794  65.438 -36.085  1.00  0.00     0.036 C 
HETATM   25  C35 UNL     1       6.771  64.635 -35.290  1.00  0.00    -0.035 C 
HETATM   26  C36 UNL     1       7.964  64.873 -34.756  1.00  0.00     0.088 C 
HETATM   27  C37 UNL     1       8.232  63.757 -33.846  1.00  0.00     0.284 C 
HETATM   28  O6  UNL     1       9.240  63.640 -33.175  1.00  0.00    -0.260 OA
HETATM   29  O7  UNL     1       7.167  62.907 -33.832  1.00  0.00    -0.304 OA
HETATM   30  C38 UNL     1       6.246  63.311 -34.834  1.00  0.00     0.192 C 
ENDROOT
BRANCH  15  31
HETATM   31  C18 UNL     1      -1.596  71.314 -36.996  1.00  0.00    -0.011 C 
HETATM   32  C19 UNL     1      -2.952  71.522 -37.697  1.00  0.00     0.011 C 
BRANCH  31  33
HETATM   33  C20 UNL     1      -1.741  71.260 -35.449  1.00  0.00    -0.010 C 
HETATM   34  C21 UNL     1      -0.436  71.470 -34.669  1.00  0.00     0.005 C 
HETATM   35  C22 UNL     1      -0.918  71.839 -33.274  1.00  0.00     0.000 C 
HETATM   36  C23 UNL     1      -2.092  72.765 -33.542  1.00  0.00     0.000 C 
HETATM   37  C24 UNL     1      -2.740  72.256 -34.833  1.00  0.00     0.005 C 
ENDBRANCH  31  33
ENDBRANCH  15  31
BRANCH  23  38
HETATM   38  O5  UNL     1       1.792  70.937 -39.575  1.00  0.00    -0.388 OA
HETATM   39  H52 UNL     1       1.289  71.055 -40.412  1.00  0.00     0.210 HD
ENDBRANCH  23  38
BRANCH  11  40
HETATM   40  O2  UNL     1       5.377  69.778 -37.488  1.00  0.00    -0.386 OA
HETATM   41  H20 UNL     1       5.827  69.760 -36.617  1.00  0.00     0.210 HD
ENDBRANCH  11  40
BRANCH  22  42
HETATM   42  C32 UNL     1       4.354  70.481 -39.943  1.00  0.00     0.244 C 
HETATM   43  O4  UNL     1       5.414  70.569 -40.562  1.00  0.00    -0.306 OA
ENDBRANCH  22  42
BRANCH  19  44
HETATM   44  O3  UNL     1       0.405  70.353 -41.841  1.00  0.00    -0.395 OA
HETATM   45  H46 UNL     1       0.342  70.524 -42.800  1.00  0.00     0.210 HD
ENDBRANCH  19  44
BRANCH   5  46
HETATM   46  O1  UNL     1       5.294  68.459 -35.247  1.00  0.00    -0.386 OA
HETATM   47  H11 UNL     1       4.552  68.939 -34.850  1.00  0.00     0.210 HD
ENDBRANCH   5  46
BRANCH   1  48
HETATM   48  C2  UNL     1       4.339  62.129 -33.624  1.00  0.00     0.306 C 
BRANCH  48  49
HETATM   49  N1  UNL     1       3.322  62.373 -32.598  1.00  0.00     0.083 N 
HETATM   50  C1  UNL     1       3.746  63.426 -31.683  1.00  0.00     0.307 C 
HETATM   51  H4  UNL     1       3.190  61.516 -32.068  1.00  0.00     0.315 HD
ENDBRANCH  48  49
ENDBRANCH   1  48
TORSDOF 9
ENDMDL
