MODEL 1
REMARK minimizedAffinity -8.17088699
REMARK CNNscore 0.630630195
REMARK CNNaffinity 7.65454483
REMARK  7 active torsions:
REMARK  status: ('A' for Active; 'I' for Inactive)
REMARK    1  A    between atoms: C2_2  and  O2_4 
REMARK    2  A    between atoms: O2_4  and  C3_5 
REMARK    3  A    between atoms: C3_5  and  C4_6 
REMARK    4  A    between atoms: C3_5  and  C9_12 
REMARK    5  A    between atoms: C5_7  and  C6_8 
REMARK    6  A    between atoms: C6_8  and  O3_11 
REMARK    7  A    between atoms: C9_12  and  C11_14 
ROOT
HETATM    1  C11 UNL     1      -0.347   7.952  13.662  1.00  0.00     0.001 C 
HETATM    2  C12 UNL     1      -0.884   9.353  13.247  1.00  0.00     0.007 C 
HETATM    3  C13 UNL     1      -2.422   9.285  13.221  1.00  0.00     0.015 C 
HETATM    4  C14 UNL     1      -2.768   7.968  13.930  1.00  0.00    -0.013 C 
HETATM    5  C15 UNL     1      -2.767   8.256  15.464  1.00  0.00     0.021 C 
HETATM    6  C16 UNL     1      -4.120   7.325  13.646  1.00  0.00    -0.068 C 
HETATM    7  C17 UNL     1      -4.277   5.980  13.717  1.00  0.00    -0.068 C 
HETATM    8  C18 UNL     1      -3.085   5.076  14.071  1.00  0.00     0.036 C 
HETATM    9  C19 UNL     1      -1.693   5.736  14.214  1.00  0.00     0.015 C 
HETATM   10  C20 UNL     1      -1.598   7.043  13.417  1.00  0.00    -0.029 C 
HETATM   11  C21 UNL     1      -1.694   6.711  11.893  1.00  0.00     0.016 C 
HETATM   12  C22 UNL     1      -5.624   5.273  13.381  1.00  0.00    -0.015 C 
HETATM   13  C23 UNL     1      -5.372   4.391  12.124  1.00  0.00     0.020 C 
HETATM   14  C24 UNL     1      -6.072   4.391  14.568  1.00  0.00     0.021 C 
HETATM   15  C25 UNL     1      -7.298   3.534  14.267  1.00  0.00     0.080 C 
HETATM   16  C26 UNL     1      -8.269   4.202  13.322  1.00  0.00     0.135 C 
HETATM   17  O4  UNL     1      -9.079   3.520  12.693  1.00  0.00    -0.297 OA
HETATM   18  C27 UNL     1      -8.259   5.732  13.256  1.00  0.00     0.018 C 
HETATM   19  C28 UNL     1      -9.143   6.196  12.076  1.00  0.00     0.023 C 
HETATM   20  C29 UNL     1      -8.945   6.209  14.557  1.00  0.00     0.023 C 
HETATM   21  C30 UNL     1      -6.795   6.280  13.029  1.00  0.00     0.013 C 
HETATM   22  C31 UNL     1      -6.600   7.645  13.709  1.00  0.00     0.011 C 
HETATM   23  C32 UNL     1      -5.258   8.257  13.347  1.00  0.00     0.036 C 
ENDROOT
BRANCH   1  24
HETATM   24  C9  UNL     1       1.017   7.592  12.983  1.00  0.00     0.020 C 
HETATM   25  C10 UNL     1       1.679   8.838  12.371  1.00  0.00     0.013 C 
BRANCH  24  26
HETATM   26  C3  UNL     1       0.927   6.504  11.861  1.00  0.00     0.158 C 
BRANCH  26  27
HETATM   27  O2  UNL     1       1.305   5.214  12.379  1.00  0.00    -0.312 OA
BRANCH  27  28
HETATM   28  C2  UNL     1       1.083   4.137  11.579  1.00  0.00     0.255 C 
HETATM   29  C1  UNL     1      -0.278   3.572  11.850  1.00  0.00     0.126 C 
HETATM   30  O1  UNL     1       1.847   3.698  10.731  1.00  0.00    -0.266 OA
ENDBRANCH  27  28
ENDBRANCH  26  27
BRANCH  26  31
HETATM   31  C4  UNL     1       1.828   6.758  10.677  1.00  0.00     0.005 C 
HETATM   32  C5  UNL     1       1.399   6.827   9.405  1.00  0.00     0.008 C 
BRANCH  32  33
HETATM   33  C6  UNL     1       2.227   7.077   8.165  1.00  0.00     0.068 C 
HETATM   34  C7  UNL     1       1.378   7.788   7.107  1.00  0.00     0.050 C 
HETATM   35  C8  UNL     1       2.888   5.838   7.551  1.00  0.00     0.050 C 
BRANCH  33  36
HETATM   36  O3  UNL     1       3.268   7.976   8.554  1.00  0.00    -0.387 OA
HETATM   37  H13 UNL     1       3.757   7.546   9.278  1.00  0.00     0.211 HD
ENDBRANCH  33  36
ENDBRANCH  32  33
ENDBRANCH  26  31
ENDBRANCH  24  26
ENDBRANCH   1  24
TORSDOF 7
ENDMDL
