MODEL 1
REMARK minimizedAffinity -9.24298954
REMARK  7 active torsions:
REMARK  status: ('A' for Active; 'I' for Inactive)
REMARK    1  A    between atoms: C2_2  and  C4_4 
REMARK    2  A    between atoms: C7_7  and  O1_9 
REMARK    3  A    between atoms: C9_10  and  C10_11 
REMARK    4  A    between atoms: C11_12  and  C12_13 
REMARK    5  A    between atoms: C14_15  and  C15_16 
REMARK    6  A    between atoms: C24_26  and  C26_28 
REMARK    7  A    between atoms: C29_32  and  O4_34 
ROOT
HETATM    1  C15 UNL     1      -2.736  48.866 -24.811  1.00  0.00     0.149 C 
HETATM    2  C16 UNL     1      -1.863  49.914 -25.506  1.00  0.00     0.054 C 
HETATM    3  C17 UNL     1      -1.726  51.100 -24.508  1.00  0.00     0.050 C 
HETATM    4  C18 UNL     1      -2.304  50.472 -23.225  1.00  0.00     0.272 C 
HETATM    5  O2  UNL     1      -1.281  49.786 -22.508  1.00  0.00    -0.360 OA
HETATM    6  C19 UNL     1      -0.675  50.562 -21.478  1.00  0.00     0.171 C 
HETATM    7  C20 UNL     1      -0.429  52.031 -21.809  1.00  0.00     0.027 C 
HETATM    8  C21 UNL     1       0.240  52.309 -23.154  1.00  0.00     0.012 C 
HETATM    9  C22 UNL     1      -0.205  51.463 -24.373  1.00  0.00     0.032 C 
HETATM   10  C23 UNL     1       0.333  52.100 -25.670  1.00  0.00    -0.066 C 
HETATM   11  C24 UNL     1       1.401  51.601 -26.348  1.00  0.00    -0.021 C 
HETATM   12  C25 UNL     1       2.218  50.397 -25.946  1.00  0.00     0.052 C 
HETATM   13  C27 UNL     1      -0.490  53.300 -26.108  1.00  0.00     0.038 C 
HETATM   14  C28 UNL     1      -1.977  52.969 -26.242  1.00  0.00     0.042 C 
HETATM   15  C29 UNL     1      -2.571  52.338 -24.968  1.00  0.00     0.067 C 
HETATM   16  C30 UNL     1      -4.065  52.052 -25.197  1.00  0.00     0.047 C 
HETATM   17  O5  UNL     1      -3.277  49.515 -23.665  1.00  0.00    -0.351 OA
ENDROOT
BRANCH   1  18
HETATM   18  C14 UNL     1      -3.809  48.313 -25.714  1.00  0.00     0.011 C 
HETATM   19  C12 UNL     1      -4.121  48.653 -26.985  1.00  0.00    -0.064 C 
HETATM   20  C13 UNL     1      -3.441  49.768 -27.740  1.00  0.00     0.048 C 
BRANCH  19  21
HETATM   21  C11 UNL     1      -5.201  47.923 -27.648  1.00  0.00     0.003 C 
HETATM   22  C10 UNL     1      -5.375  47.773 -28.973  1.00  0.00    -0.018 C 
BRANCH  22  23
HETATM   23  C9  UNL     1      -6.511  47.011 -29.629  1.00  0.00     0.050 C 
HETATM   24  C4  UNL     1      -7.088  45.860 -28.743  1.00  0.00     0.024 C 
HETATM   25  C5  UNL     1      -7.532  44.790 -29.748  1.00  0.00     0.013 C 
HETATM   26  C6  UNL     1      -6.442  44.853 -30.811  1.00  0.00     0.039 C 
HETATM   27  C7  UNL     1      -6.232  46.357 -31.024  1.00  0.00     0.062 C 
HETATM   28  C8  UNL     1      -4.890  46.651 -31.692  1.00  0.00     0.046 C 
BRANCH  24  29
HETATM   29  C2  UNL     1      -8.159  46.302 -27.757  1.00  0.00    -0.088 C 
HETATM   30  C1  UNL     1      -8.414  45.587 -26.644  1.00  0.00     0.014 C 
HETATM   31  C3  UNL     1      -8.924  47.566 -28.041  1.00  0.00     0.043 C 
ENDBRANCH  24  29
BRANCH  27  32
HETATM   32  O1  UNL     1      -7.253  46.800 -31.936  1.00  0.00    -0.390 OA
HETATM   33  H14 UNL     1      -7.116  47.751 -32.092  1.00  0.00     0.210 HD
ENDBRANCH  27  32
ENDBRANCH  22  23
ENDBRANCH  19  21
ENDBRANCH   1  18
BRANCH  15  34
HETATM   34  O4  UNL     1      -2.510  53.337 -23.938  1.00  0.00    -0.389 OA
HETATM   35  H44 UNL     1      -3.061  54.095 -24.207  1.00  0.00     0.210 HD
ENDBRANCH  15  34
BRANCH  11  36
HETATM   36  C26 UNL     1       1.907  52.224 -27.616  1.00  0.00     0.265 C 
HETATM   37  O3  UNL     1       1.439  51.955 -28.715  1.00  0.00    -0.302 OA
ENDBRANCH  11  36
TORSDOF 7
ENDMDL
