MODEL 1
REMARK minimizedAffinity -8.68276024
REMARK  11 active torsions:
REMARK  status: ('A' for Active; 'I' for Inactive)
REMARK    1  A    between atoms: C2_2  and  O1_3 
REMARK    2  A    between atoms: C2_2  and  C3_4 
REMARK    3  A    between atoms: C4_5  and  C5_6 
REMARK    4  A    between atoms: C5_6  and  O2_7 
REMARK    5  A    between atoms: C9_11  and  O3_12 
REMARK    6  A    between atoms: O3_12  and  C10_13 
REMARK    7  A    between atoms: C11_15  and  C12_16 
REMARK    8  A    between atoms: C12_16  and  O5_17 
REMARK    9  A    between atoms: C13_18  and  O6_19 
REMARK   10  A    between atoms: C14_20  and  O7_21 
REMARK   11  A    between atoms: C15_22  and  O8_23 
ROOT
HETATM    1  C5  UNL     1      -3.596   6.306  14.655  1.00  0.00     0.086 C 
HETATM    2  C6  UNL     1      -3.385   5.077  13.714  1.00  0.00     0.023 C 
HETATM    3  C7  UNL     1      -4.452   4.878  12.629  1.00  0.00     0.013 C 
HETATM    4  C8  UNL     1      -1.979   5.102  13.065  1.00  0.00     0.039 C 
HETATM    5  C9  UNL     1      -1.366   6.502  12.927  1.00  0.00     0.126 C 
HETATM    6  C16 UNL     1      -2.443   7.558  12.691  1.00  0.00     0.044 C 
HETATM    7  C17 UNL     1      -3.449   7.684  13.874  1.00  0.00    -0.010 C 
HETATM    8  C18 UNL     1      -2.924   8.804  14.812  1.00  0.00     0.018 C 
HETATM    9  C19 UNL     1      -4.793   8.190  13.300  1.00  0.00     0.018 C 
ENDROOT
BRANCH   5  10
HETATM   10  O3  UNL     1      -0.491   6.483  11.791  1.00  0.00    -0.353 OA
BRANCH  10  11
HETATM   11  C10 UNL     1       0.687   7.277  11.993  1.00  0.00     0.292 C 
HETATM   12  O4  UNL     1       0.857   8.177  10.892  1.00  0.00    -0.348 OA
HETATM   13  C11 UNL     1       1.693   7.696   9.820  1.00  0.00     0.179 C 
HETATM   14  C13 UNL     1       1.606   6.178   9.656  1.00  0.00     0.180 C 
HETATM   15  C14 UNL     1       2.134   5.492  10.932  1.00  0.00     0.183 C 
HETATM   16  C15 UNL     1       1.870   6.311  12.207  1.00  0.00     0.204 C 
BRANCH  13  17
HETATM   17  C12 UNL     1       1.263   8.437   8.547  1.00  0.00     0.198 C 
BRANCH  17  18
HETATM   18  O5  UNL     1       0.021   9.113   8.772  1.00  0.00    -0.398 OA
HETATM   19  H20 UNL     1      -0.541   8.465   9.244  1.00  0.00     0.209 HD
ENDBRANCH  17  18
ENDBRANCH  13  17
BRANCH  14  20
HETATM   20  O6  UNL     1       2.349   5.711   8.528  1.00  0.00    -0.390 OA
HETATM   21  H22 UNL     1       2.324   4.736   8.564  1.00  0.00     0.210 HD
ENDBRANCH  14  20
BRANCH  15  22
HETATM   22  O7  UNL     1       1.535   4.188  11.030  1.00  0.00    -0.390 OA
HETATM   23  H24 UNL     1       0.580   4.328  11.179  1.00  0.00     0.210 HD
ENDBRANCH  15  22
BRANCH  16  24
HETATM   24  O8  UNL     1       3.045   7.045  12.575  1.00  0.00    -0.388 OA
HETATM   25  H26 UNL     1       3.725   6.397  12.834  1.00  0.00     0.210 HD
ENDBRANCH  16  24
ENDBRANCH  10  11
ENDBRANCH   5  10
BRANCH   1  26
HETATM   26  C4  UNL     1      -4.818   6.264  15.560  1.00  0.00     0.010 C 
HETATM   27  C3  UNL     1      -6.073   5.890  15.257  1.00  0.00     0.003 C 
BRANCH  27  28
HETATM   28  C2  UNL     1      -7.202   5.857  16.243  1.00  0.00     0.136 C 
HETATM   29  C1  UNL     1      -8.098   7.079  16.111  1.00  0.00     0.043 C 
BRANCH  28  30
HETATM   30  O1  UNL     1      -7.974   4.697  15.962  1.00  0.00    -0.392 OA
HETATM   31  H5  UNL     1      -7.385   3.934  16.093  1.00  0.00     0.210 HD
ENDBRANCH  28  30
ENDBRANCH  27  28
ENDBRANCH   1  26
BRANCH   1  32
HETATM   32  O2  UNL     1      -2.506   6.229  15.600  1.00  0.00    -0.385 OA
HETATM   33  H8  UNL     1      -2.650   5.434  16.144  1.00  0.00     0.211 HD
ENDBRANCH   1  32
TORSDOF 11
ENDMDL
