MODEL 1
REMARK minimizedAffinity -8.4316473
REMARK  9 active torsions:
REMARK  status: ('A' for Active; 'I' for Inactive)
REMARK    1  A    between atoms: O1_2  and  C2_3 
REMARK    2  A    between atoms: C2_3  and  C3_4 
REMARK    3  A    between atoms: C3_4  and  N1_5 
REMARK       I    between atoms: N1_5  and  C4_6 
REMARK    4  A    between atoms: C4_6  and  C5_8 
REMARK    5  A    between atoms: C5_8  and  C7_10 
REMARK    6  A    between atoms: C15_20  and  N3_21 
REMARK       I    between atoms: N3_21  and  C16_22 
REMARK    7  A    between atoms: C16_22  and  C17_24 
REMARK    8  A    between atoms: C17_24  and  N4_25 
REMARK    9  A    between atoms: C23_32  and  O4_33 
ROOT
HETATM    1  C7  UNL     1      -6.398   5.486  13.645  1.00  0.00     0.027 C 
HETATM    2  C8  UNL     1      -5.944   5.692  15.096  1.00  0.00     0.009 C 
HETATM    3  C9  UNL     1      -4.718   6.606  15.191  1.00  0.00     0.010 C 
HETATM    4  C10 UNL     1      -3.689   6.467  14.031  1.00  0.00    -0.033 C 
HETATM    5  C11 UNL     1      -3.893   7.634  13.027  1.00  0.00     0.016 C 
HETATM    6  C12 UNL     1      -2.254   6.598  14.650  1.00  0.00     0.058 C 
HETATM    7  C13 UNL     1      -1.217   6.172  13.670  1.00  0.00     0.010 A 
HETATM    8  C14 UNL     1      -1.441   5.392  12.556  1.00  0.00     0.029 A 
HETATM    9  N2  UNL     1      -0.331   5.186  11.761  1.00  0.00    -0.339 N 
ATOM     10  H2  UNL     1      -0.324   4.668  10.882  1.00  0.00     0.168 HD
HETATM   11  C15 UNL     1       0.709   5.756  12.311  1.00  0.00     0.151 A 
HETATM   12  S1  UNL     1       0.433   6.581  13.785  1.00  0.00    -0.056 SA
HETATM   13  C20 UNL     1      -2.794   4.859  12.163  1.00  0.00     0.040 C 
HETATM   14  C21 UNL     1      -2.695   3.392  11.726  1.00  0.00     0.017 C 
HETATM   15  C22 UNL     1      -3.830   5.066  13.334  1.00  0.00     0.033 C 
HETATM   16  C23 UNL     1      -5.279   4.751  12.866  1.00  0.00     0.128 C 
ENDROOT
BRANCH   1  17
HETATM   17  C5  UNL     1      -7.788   4.790  13.573  1.00  0.00     0.080 C 
HETATM   18  C6  UNL     1      -7.762   3.444  12.840  1.00  0.00     0.020 C 
BRANCH  17  19
HETATM   19  C4  UNL     1      -8.827   5.703  12.917  1.00  0.00     0.222 C 
HETATM   20  N1  UNL     1      -9.807   6.182  13.761  1.00  0.00    -0.359 N 
HETATM   21  H8  UNL     1      -9.697   6.047  14.756  1.00  0.00     0.162 HD
HETATM   22  O2  UNL     1      -8.801   5.928  11.710  1.00  0.00    -0.273 OA
BRANCH  20  23
HETATM   23  C3  UNL     1     -10.770   7.181  13.321  1.00  0.00     0.148 C 
BRANCH  23  24
HETATM   24  C2  UNL     1     -11.948   7.324  14.293  1.00  0.00     0.186 C 
BRANCH  24  25
HETATM   25  O1  UNL     1     -13.165   6.909  13.675  1.00  0.00    -0.394 OA
HETATM   26  C1  UNL     1     -13.728   5.772  14.319  1.00  0.00     0.201 C 
ENDBRANCH  24  25
ENDBRANCH  23  24
ENDBRANCH  20  23
ENDBRANCH  17  19
ENDBRANCH   1  17
BRANCH  16  27
HETATM   27  O4  UNL     1      -5.467   3.338  12.968  1.00  0.00    -0.395 OA
HETATM   28  H38 UNL     1      -5.431   3.081  13.907  1.00  0.00     0.210 HD
ENDBRANCH  16  27
BRANCH  11  29
HETATM   29  N3  UNL     1       2.009   5.788  11.897  1.00  0.00    -0.306 N 
HETATM   30  C16 UNL     1       2.367   5.795  10.561  1.00  0.00     0.252 C 
HETATM   31  O3  UNL     1       1.596   5.861   9.608  1.00  0.00    -0.271 OA
HETATM   32  H23 UNL     1       2.706   5.811  12.626  1.00  0.00     0.171 HD
BRANCH  30  33
HETATM   33  C17 UNL     1       3.895   5.734  10.378  1.00  0.00     0.373 C 
BRANCH  33  34
HETATM   34  N4  UNL     1       4.652   6.785  11.089  1.00  0.00     0.088 N 
HETATM   35  C18 UNL     1       6.028   6.391  11.377  1.00  0.00     0.310 C 
HETATM   36  C19 UNL     1       4.612   8.071  10.393  1.00  0.00     0.310 C 
ENDBRANCH  33  34
ENDBRANCH  30  33
ENDBRANCH  11  29
TORSDOF 9
ENDMDL
