MODEL 1
REMARK minimizedAffinity -8.99660683
REMARK  6 active torsions:
REMARK  status: ('A' for Active; 'I' for Inactive)
REMARK    1  A    between atoms: C2_2  and  C30_32 
REMARK    2  A    between atoms: C3_3  and  C4_4 
REMARK    3  A    between atoms: C4_4  and  C5_5 
REMARK    4  A    between atoms: C5_5  and  C6_6 
REMARK    5  A    between atoms: C6_6  and  C8_8 
REMARK    6  A    between atoms: C30_32  and  O3_33 
ROOT
HETATM    1  C8  UNL     1      -5.736   7.622  14.535  1.00  0.00    -0.002 C 
HETATM    2  C9  UNL     1      -5.309   8.900  15.310  1.00  0.00     0.007 C 
HETATM    3  C10 UNL     1      -3.786   9.050  15.126  1.00  0.00     0.015 C 
HETATM    4  C11 UNL     1      -3.432   8.121  13.947  1.00  0.00    -0.005 C 
HETATM    5  C12 UNL     1      -3.758   8.902  12.636  1.00  0.00     0.021 C 
HETATM    6  C13 UNL     1      -2.007   7.625  13.748  1.00  0.00    -0.000 C 
HETATM    7  C14 UNL     1      -1.747   6.439  13.142  1.00  0.00    -0.060 C 
HETATM    8  C15 UNL     1      -2.903   5.512  12.726  1.00  0.00     0.036 C 
HETATM    9  C16 UNL     1      -4.344   5.958  13.055  1.00  0.00     0.015 C 
HETATM   10  C17 UNL     1      -4.384   6.899  14.265  1.00  0.00    -0.028 C 
HETATM   11  C18 UNL     1      -3.939   6.092  15.519  1.00  0.00     0.016 C 
HETATM   12  C19 UNL     1      -0.318   5.916  12.858  1.00  0.00    -0.014 C 
HETATM   13  C20 UNL     1      -0.027   4.782  13.880  1.00  0.00     0.020 C 
HETATM   14  C21 UNL     1      -0.234   5.311  11.427  1.00  0.00     0.021 C 
HETATM   15  C22 UNL     1       1.171   5.343  10.851  1.00  0.00     0.080 C 
HETATM   16  C23 UNL     1       1.572   6.782  10.637  1.00  0.00     0.135 C 
HETATM   17  O1  UNL     1       2.190   7.106   9.623  1.00  0.00    -0.297 OA
HETATM   18  C24 UNL     1       1.181   7.801  11.725  1.00  0.00     0.018 C 
HETATM   19  C25 UNL     1       0.067   8.687  11.150  1.00  0.00     0.023 C 
HETATM   20  C26 UNL     1       2.422   8.688  11.972  1.00  0.00     0.023 C 
HETATM   21  C27 UNL     1       0.796   7.018  13.036  1.00  0.00     0.020 C 
HETATM   22  C28 UNL     1       0.495   7.891  14.256  1.00  0.00     0.090 C 
HETATM   23  C29 UNL     1      -0.881   8.496  14.197  1.00  0.00     0.157 C 
HETATM   24  O2  UNL     1      -1.066   9.658  14.544  1.00  0.00    -0.293 OA
ENDROOT
BRANCH   1  25
HETATM   25  C6  UNL     1      -6.984   6.908  15.139  1.00  0.00    -0.014 C 
HETATM   26  C7  UNL     1      -6.720   5.941  16.296  1.00  0.00     0.010 C 
BRANCH  25  27
HETATM   27  C5  UNL     1      -7.847   6.252  14.032  1.00  0.00     0.008 C 
BRANCH  27  28
HETATM   28  C4  UNL     1      -7.700   4.724  13.913  1.00  0.00     0.028 C 
BRANCH  28  29
HETATM   29  C3  UNL     1      -6.728   4.287  12.853  1.00  0.00    -0.022 C 
HETATM   30  C2  UNL     1      -6.597   3.055  12.309  1.00  0.00    -0.064 C 
HETATM   31  C1  UNL     1      -7.471   1.887  12.683  1.00  0.00     0.045 C 
BRANCH  30  32
HETATM   32  C30 UNL     1      -5.539   2.705  11.283  1.00  0.00     0.197 C 
BRANCH  32  33
HETATM   33  O3  UNL     1      -5.761   1.432  10.695  1.00  0.00    -0.397 OA
HETATM   34  H46 UNL     1      -5.736   0.790  11.426  1.00  0.00     0.209 HD
ENDBRANCH  32  33
ENDBRANCH  30  32
ENDBRANCH  28  29
ENDBRANCH  27  28
ENDBRANCH  25  27
ENDBRANCH   1  25
TORSDOF 6
ENDMDL
