MODEL 1
REMARK minimizedAffinity -10.0274315
REMARK  4 active torsions:
REMARK  status: ('A' for Active; 'I' for Inactive)
REMARK    1  A    between atoms: C3_4  and  C4_5 
REMARK       I    between atoms: N3_16  and  C13_17 
REMARK    2  A    between atoms: C13_17  and  C14_19 
REMARK    3  A    between atoms: C14_19  and  C15_20 
REMARK    4  A    between atoms: C15_20  and  C16_21 
ROOT
HETATM    1  C4  UNL     1      -0.005  50.597 -16.693  1.00  0.00    -0.020 A 
HETATM    2  C5  UNL     1      -0.516  49.297 -16.504  1.00  0.00     0.014 A 
HETATM    3  C6  UNL     1      -1.598  48.822 -17.259  1.00  0.00     0.027 A 
HETATM    4  C7  UNL     1      -2.173  49.660 -18.200  1.00  0.00     0.048 A 
HETATM    5  N2  UNL     1      -3.292  49.300 -18.974  1.00  0.00    -0.227 NA
HETATM    6  C8  UNL     1      -3.140  48.365 -19.986  1.00  0.00     0.202 C 
HETATM    7  O1  UNL     1      -2.230  47.551 -20.095  1.00  0.00    -0.280 OA
HETATM    8  C9  UNL     1      -4.229  48.494 -21.020  1.00  0.00     0.102 C 
HETATM    9  C10 UNL     1      -3.962  49.357 -22.263  1.00  0.00     0.001 C 
HETATM   10  C11 UNL     1      -2.961  48.778 -23.262  1.00  0.00     0.025 C 
HETATM   11  C12 UNL     1      -3.184  49.416 -24.643  1.00  0.00     0.126 C 
HETATM   12  N3  UNL     1      -3.364  50.878 -24.620  1.00  0.00    -0.352 N 
HETATM   13  C13 UNL     1      -3.166  51.678 -25.751  1.00  0.00     0.220 C 
HETATM   14  O2  UNL     1      -3.596  52.829 -25.819  1.00  0.00    -0.273 OA
HETATM   15  C22 UNL     1      -4.190  51.445 -23.536  1.00  0.00     0.130 C 
HETATM   16  C23 UNL     1      -3.752  50.897 -22.145  1.00  0.00     0.010 C 
HETATM   17  C24 UNL     1      -2.333  51.516 -21.922  1.00  0.00     0.033 C 
HETATM   18  C25 UNL     1      -1.505  51.175 -20.696  1.00  0.00     0.176 C 
HETATM   19  O3  UNL     1      -2.137  51.655 -19.496  1.00  0.00    -0.349 OA
HETATM   20  C26 UNL     1      -1.639  50.930 -18.434  1.00  0.00     0.091 A 
HETATM   21  C27 UNL     1      -0.580  51.417 -17.675  1.00  0.00     0.051 A 
HETATM   22  H7  UNL     1      -3.788  50.125 -19.301  1.00  0.00     0.136 HD
ENDROOT
BRANCH  13  23
HETATM   23  C14 UNL     1      -2.369  51.065 -26.891  1.00  0.00     0.107 C 
BRANCH  23  24
HETATM   24  C15 UNL     1      -1.169  50.265 -26.379  1.00  0.00     0.047 C 
BRANCH  24  25
HETATM   25  C16 UNL     1       0.135  50.883 -26.830  1.00  0.00    -0.058 A 
HETATM   26  C17 UNL     1       1.289  50.761 -26.042  1.00  0.00     0.007 A 
HETATM   27  C18 UNL     1       2.498  51.313 -26.469  1.00  0.00     0.001 A 
HETATM   28  C19 UNL     1       2.566  51.990 -27.687  1.00  0.00     0.000 A 
HETATM   29  C20 UNL     1       1.425  52.116 -28.478  1.00  0.00     0.001 A 
HETATM   30  C21 UNL     1       0.214  51.563 -28.054  1.00  0.00     0.007 A 
ENDBRANCH  24  25
ENDBRANCH  23  24
ENDBRANCH  13  23
BRANCH   1  31
HETATM   31  C3  UNL     1       1.107  51.066 -15.878  1.00  0.00     0.008 A 
HETATM   32  C2  UNL     1       1.505  50.526 -14.672  1.00  0.00     0.123 A 
HETATM   33  N1  UNL     1       2.582  51.256 -14.256  1.00  0.00    -0.307 N 
HETATM   34  C1  UNL     1       3.346  51.065 -13.047  1.00  0.00     0.177 C 
HETATM   35  N4  UNL     1       2.924  52.238 -15.107  1.00  0.00    -0.310 N 
HETATM   36  C28 UNL     1       2.025  52.125 -16.088  1.00  0.00     0.120 A 
ATOM     37  H4  UNL     1       3.688  52.909 -15.024  1.00  0.00     0.186 HD
ENDBRANCH   1  31
TORSDOF 4
ENDMDL
