MODEL 1
REMARK minimizedAffinity -8.45214558
REMARK CNNscore 0.414048523
REMARK CNNaffinity 6.28752327
REMARK  12 active torsions:
REMARK  status: ('A' for Active; 'I' for Inactive)
REMARK    1  A    between atoms: C2_2  and  C3_3 
REMARK    2  A    between atoms: C2_2  and  C9_10 
REMARK    3  A    between atoms: C3_3  and  C4_4 
REMARK    4  A    between atoms: C5_5  and  C6_6 
REMARK    5  A    between atoms: C6_6  and  O1_9 
REMARK    6  A    between atoms: C27_30  and  O4_31 
REMARK    7  A    between atoms: O4_31  and  C28_32 
REMARK    8  A    between atoms: C29_34  and  C30_35 
REMARK    9  A    between atoms: C30_35  and  O6_36 
REMARK   10  A    between atoms: C31_37  and  O7_38 
REMARK   11  A    between atoms: C32_39  and  O8_40 
REMARK   12  A    between atoms: C33_41  and  O9_42 
ROOT
HETATM    1  C9  UNL     1      -8.846  47.057 -29.058  1.00  0.00    -0.002 C 
HETATM    2  C10 UNL     1      -7.883  46.065 -28.331  1.00  0.00     0.006 C 
HETATM    3  C11 UNL     1      -8.705  45.310 -27.265  1.00  0.00     0.011 C 
HETATM    4  C12 UNL     1     -10.169  45.630 -27.610  1.00  0.00    -0.028 C 
HETATM    5  C13 UNL     1     -10.550  44.646 -28.766  1.00  0.00     0.016 C 
HETATM    6  C14 UNL     1     -11.181  45.511 -26.426  1.00  0.00     0.035 C 
HETATM    7  C15 UNL     1     -11.290  44.104 -25.855  1.00  0.00    -0.021 C 
HETATM    8  C16 UNL     1     -12.485  43.523 -25.639  1.00  0.00     0.009 C 
HETATM    9  C17 UNL     1     -13.791  44.211 -26.030  1.00  0.00     0.102 C 
HETATM   10  O2  UNL     1     -13.990  45.249 -25.052  1.00  0.00    -0.304 OA
HETATM   11  C18 UNL     1     -13.280  46.359 -25.428  1.00  0.00     0.270 C 
HETATM   12  O3  UNL     1     -13.183  47.362 -24.740  1.00  0.00    -0.264 OA
HETATM   13  C19 UNL     1     -12.608  46.114 -26.783  1.00  0.00     0.062 C 
HETATM   14  C20 UNL     1     -12.529  47.447 -27.570  1.00  0.00     0.022 C 
HETATM   15  C21 UNL     1     -11.417  47.559 -28.630  1.00  0.00     0.011 C 
HETATM   16  C22 UNL     1     -10.049  47.136 -28.064  1.00  0.00    -0.032 C 
HETATM   17  C23 UNL     1      -9.667  48.121 -26.911  1.00  0.00     0.016 C 
HETATM   18  C24 UNL     1     -13.543  45.002 -27.335  1.00  0.00     0.045 C 
HETATM   19  C25 UNL     1     -14.838  45.408 -28.059  1.00  0.00     0.012 C 
HETATM   20  C26 UNL     1     -16.055  45.448 -27.159  1.00  0.00     0.033 C 
HETATM   21  C27 UNL     1     -16.340  44.091 -26.501  1.00  0.00     0.136 C 
HETATM   22  C34 UNL     1     -15.053  43.286 -26.068  1.00  0.00     0.015 C 
HETATM   23  C35 UNL     1     -15.296  42.613 -24.689  1.00  0.00     0.021 C 
HETATM   24  C36 UNL     1     -14.836  42.136 -27.088  1.00  0.00     0.021 C 
ENDROOT
BRANCH  21  25
HETATM   25  O4  UNL     1     -17.205  44.327 -25.378  1.00  0.00    -0.352 OA
BRANCH  25  26
HETATM   26  C28 UNL     1     -18.517  43.782 -25.516  1.00  0.00     0.292 C 
HETATM   27  O5  UNL     1     -19.511  44.811 -25.509  1.00  0.00    -0.348 OA
HETATM   28  C29 UNL     1     -19.764  45.471 -24.254  1.00  0.00     0.179 C 
HETATM   29  C31 UNL     1     -19.952  44.493 -23.089  1.00  0.00     0.180 C 
HETATM   30  C32 UNL     1     -18.870  43.410 -23.055  1.00  0.00     0.183 C 
HETATM   31  C33 UNL     1     -18.736  42.728 -24.417  1.00  0.00     0.204 C 
BRANCH  28  32
HETATM   32  C30 UNL     1     -18.714  46.550 -23.960  1.00  0.00     0.198 C 
BRANCH  32  33
HETATM   33  O6  UNL     1     -18.912  47.657 -24.839  1.00  0.00    -0.398 OA
HETATM   34  H44 UNL     1     -18.910  47.284 -25.738  1.00  0.00     0.209 HD
ENDBRANCH  32  33
ENDBRANCH  28  32
BRANCH  29  35
HETATM   35  O7  UNL     1     -21.232  43.832 -23.194  1.00  0.00    -0.390 OA
HETATM   36  H46 UNL     1     -21.243  43.395 -24.074  1.00  0.00     0.210 HD
ENDBRANCH  29  35
BRANCH  30  37
HETATM   37  O8  UNL     1     -19.223  42.411 -22.079  1.00  0.00    -0.390 OA
HETATM   38  H48 UNL     1     -20.174  42.553 -21.886  1.00  0.00     0.210 HD
ENDBRANCH  30  37
BRANCH  31  39
HETATM   39  O9  UNL     1     -19.920  41.953 -24.687  1.00  0.00    -0.388 OA
HETATM   40  H50 UNL     1     -19.994  41.345 -23.923  1.00  0.00     0.210 HD
ENDBRANCH  31  39
ENDBRANCH  25  26
ENDBRANCH  21  25
BRANCH   1  41
HETATM   41  C2  UNL     1      -8.115  48.362 -29.491  1.00  0.00    -0.010 C 
HETATM   42  C1  UNL     1      -8.834  49.094 -30.629  1.00  0.00     0.010 C 
BRANCH  41  43
HETATM   43  C3  UNL     1      -6.630  48.127 -29.885  1.00  0.00     0.031 C 
BRANCH  43  44
HETATM   44  C4  UNL     1      -6.394  47.790 -31.333  1.00  0.00    -0.027 C 
HETATM   45  C5  UNL     1      -5.167  47.641 -31.865  1.00  0.00     0.006 C 
BRANCH  45  46
HETATM   46  C6  UNL     1      -4.806  47.299 -33.290  1.00  0.00     0.068 C 
HETATM   47  C7  UNL     1      -5.909  47.795 -34.229  1.00  0.00     0.050 C 
HETATM   48  C8  UNL     1      -3.442  47.810 -33.762  1.00  0.00     0.050 C 
BRANCH  46  49
HETATM   49  O1  UNL     1      -4.771  45.870 -33.344  1.00  0.00    -0.387 OA
HETATM   50  H15 UNL     1      -4.744  45.605 -34.278  1.00  0.00     0.211 HD
ENDBRANCH  46  49
ENDBRANCH  45  46
ENDBRANCH  43  44
ENDBRANCH  41  43
ENDBRANCH   1  41
TORSDOF 12
ENDMDL
