MODEL 1
REMARK minimizedAffinity -9.28223705
REMARK  6 active torsions:
REMARK  status: ('A' for Active; 'I' for Inactive)
REMARK    1  A    between atoms: C2_2  and  C4_4 
REMARK    2  A    between atoms: C4_4  and  O1_5 
REMARK    3  A    between atoms: C4_4  and  C5_6 
REMARK    4  A    between atoms: C5_6  and  C6_7 
REMARK    5  A    between atoms: C6_7  and  C7_8 
REMARK    6  A    between atoms: C7_8  and  C9_10 
ROOT
HETATM    1  C9  UNL     1      -0.455  51.332 -21.090  1.00  0.00    -0.001 C 
HETATM    2  C10 UNL     1      -0.931  52.090 -19.816  1.00  0.00     0.007 C 
HETATM    3  C11 UNL     1      -2.282  51.486 -19.393  1.00  0.00     0.024 C 
HETATM    4  C12 UNL     1      -2.441  50.268 -20.275  1.00  0.00     0.092 C 
HETATM    5  C13 UNL     1      -1.756  49.019 -19.657  1.00  0.00     0.272 C 
HETATM    6  O2  UNL     1      -0.821  48.987 -18.876  1.00  0.00    -0.264 OA
HETATM    7  O3  UNL     1      -2.388  47.888 -20.144  1.00  0.00    -0.305 OA
HETATM    8  C14 UNL     1      -3.456  48.296 -21.032  1.00  0.00     0.113 C 
HETATM    9  C15 UNL     1      -2.816  48.450 -22.449  1.00  0.00     0.043 C 
HETATM   10  C16 UNL     1      -1.552  49.356 -22.461  1.00  0.00     0.014 C 
HETATM   11  C17 UNL     1      -1.753  50.651 -21.630  1.00  0.00    -0.020 C 
HETATM   12  C18 UNL     1      -2.591  51.634 -22.476  1.00  0.00     0.017 C 
HETATM   13  C19 UNL     1      -3.771  49.661 -20.494  1.00  0.00     0.137 A 
HETATM   14  O4  UNL     1      -4.876  50.406 -20.969  1.00  0.00    -0.364 OA
HETATM   15  C20 UNL     1      -4.972  49.930 -19.612  1.00  0.00     0.162 A 
HETATM   16  C21 UNL     1      -5.984  48.848 -19.385  1.00  0.00     0.042 C 
HETATM   17  C22 UNL     1      -5.314  47.462 -19.498  1.00  0.00     0.014 C 
HETATM   18  C23 UNL     1      -6.167  46.259 -18.968  1.00  0.00     0.018 C 
HETATM   19  C24 UNL     1      -6.498  46.462 -17.472  1.00  0.00     0.023 C 
HETATM   20  C25 UNL     1      -7.482  46.020 -19.722  1.00  0.00     0.023 C 
HETATM   21  C26 UNL     1      -5.330  44.972 -19.067  1.00  0.00     0.135 C 
HETATM   22  O5  UNL     1      -5.725  43.903 -18.598  1.00  0.00    -0.297 OA
HETATM   23  C27 UNL     1      -3.985  45.062 -19.751  1.00  0.00     0.080 C 
HETATM   24  C28 UNL     1      -4.145  45.801 -21.071  1.00  0.00     0.020 C 
HETATM   25  C29 UNL     1      -4.652  47.271 -20.925  1.00  0.00    -0.004 C 
HETATM   26  C30 UNL     1      -5.639  47.526 -22.095  1.00  0.00     0.019 C 
ENDROOT
BRANCH   1  27
HETATM   27  C7  UNL     1       0.505  52.174 -21.985  1.00  0.00    -0.014 C 
HETATM   28  C8  UNL     1       1.034  53.485 -21.391  1.00  0.00     0.010 C 
BRANCH  27  29
HETATM   29  C6  UNL     1      -0.092  52.405 -23.390  1.00  0.00     0.007 C 
BRANCH  29  30
HETATM   30  C5  UNL     1       0.858  53.017 -24.435  1.00  0.00     0.036 C 
BRANCH  30  31
HETATM   31  C4  UNL     1       0.348  52.951 -25.883  1.00  0.00     0.146 C 
BRANCH  31  32
HETATM   32  C2  UNL     1       1.156  52.005 -26.750  1.00  0.00    -0.065 C 
HETATM   33  C1  UNL     1       2.266  51.407 -26.283  1.00  0.00     0.016 C 
HETATM   34  C3  UNL     1       0.680  51.739 -28.153  1.00  0.00     0.045 C 
ENDBRANCH  31  32
BRANCH  31  35
HETATM   35  O1  UNL     1       0.355  54.245 -26.476  1.00  0.00    -0.391 OA
HETATM   36  H7  UNL     1       1.237  54.627 -26.346  1.00  0.00     0.210 HD
ENDBRANCH  31  35
ENDBRANCH  30  31
ENDBRANCH  29  30
ENDBRANCH  27  29
ENDBRANCH   1  27
TORSDOF 6
ENDMDL
