MODEL 1
REMARK minimizedAffinity -11.1356621
REMARK  7 active torsions:
REMARK  status: ('A' for Active; 'I' for Inactive)
REMARK    1  A    between atoms: N1_2  and  C2_3 
REMARK    2  A    between atoms: C4_5  and  N4_34 
REMARK    3  A    between atoms: C5_7  and  N2_12 
REMARK    4  A    between atoms: C7_9  and  O2_10 
REMARK    5  A    between atoms: C18_24  and  O3_25 
REMARK    6  A    between atoms: C19_26  and  C20_27 
REMARK    7  A    between atoms: C27_35  and  C28_36 
ROOT
HETATM    1  C2  UNL     1      -1.242  49.479 -18.812  1.00  0.00     0.257 C 
HETATM    2  C3  UNL     1      -0.935  48.854 -20.171  1.00  0.00     0.092 C 
HETATM    3  C4  UNL     1      -1.703  49.538 -21.300  1.00  0.00     0.234 C 
HETATM    4  O1  UNL     1      -3.075  49.811 -21.042  1.00  0.00    -0.333 OA
HETATM    5  C5  UNL     1      -3.471  50.280 -19.731  1.00  0.00     0.168 C 
HETATM    6  C6  UNL     1      -4.991  49.995 -19.779  1.00  0.00     0.074 C 
HETATM    7  C7  UNL     1      -2.776  49.490 -18.577  1.00  0.00     0.209 C 
ENDROOT
BRANCH   1   8
HETATM    8  N1  UNL     1      -0.480  48.910 -17.673  1.00  0.00     0.086 N 
HETATM    9  C1  UNL     1      -0.342  49.766 -16.504  1.00  0.00     0.307 C 
HETATM   10  H4  UNL     1      -0.935  48.045 -17.374  1.00  0.00     0.316 HD
ENDBRANCH   1   8
BRANCH   7  11
HETATM   11  O2  UNL     1      -3.274  48.133 -18.561  1.00  0.00    -0.384 OA
HETATM   12  C8  UNL     1      -2.431  47.238 -19.280  1.00  0.00     0.202 C 
ENDBRANCH   7  11
BRANCH   3  13
HETATM   13  N4  UNL     1      -1.051  50.738 -21.813  1.00  0.00    -0.316 N 
HETATM   14  C26 UNL     1      -0.331  51.651 -21.062  1.00  0.00     0.048 A 
HETATM   15  C21 UNL     1       0.134  52.642 -21.946  1.00  0.00     0.004 A 
HETATM   16  C25 UNL     1      -0.051  51.689 -19.684  1.00  0.00     0.030 A 
HETATM   17  C20 UNL     1      -0.337  52.309 -23.254  1.00  0.00     0.021 A 
HETATM   18  C22 UNL     1       0.906  53.696 -21.407  1.00  0.00     0.014 A 
HETATM   19  C27 UNL     1      -1.056  51.134 -23.110  1.00  0.00     0.077 A 
HETATM   20  C23 UNL     1       1.189  53.738 -20.038  1.00  0.00     0.001 A 
HETATM   21  C24 UNL     1       0.715  52.747 -19.190  1.00  0.00     0.002 A 
BRANCH  17  22
HETATM   22  C19 UNL     1      -0.295  52.799 -24.566  1.00  0.00     0.037 A 
HETATM   23  C16 UNL     1      -0.945  52.212 -25.679  1.00  0.00    -0.012 A 
HETATM   24  C15 UNL     1      -1.710  51.041 -25.567  1.00  0.00     0.015 C 
HETATM   25  C17 UNL     1      -0.672  53.079 -26.878  1.00  0.00     0.162 A 
HETATM   26  C14 UNL     1      -2.532  50.252 -26.415  1.00  0.00     0.004 A 
HETATM   27  C28 UNL     1      -1.768  50.460 -24.315  1.00  0.00     0.077 C 
HETATM   28  C9  UNL     1      -3.080  49.219 -25.633  1.00  0.00     0.049 A 
HETATM   29  C13 UNL     1      -2.899  50.359 -27.774  1.00  0.00     0.014 A 
HETATM   30  N2  UNL     1      -2.504  49.308 -24.362  1.00  0.00    -0.308 N 
HETATM   31  C10 UNL     1      -4.028  48.335 -26.184  1.00  0.00     0.030 A 
HETATM   32  C11 UNL     1      -4.380  48.469 -27.532  1.00  0.00     0.002 A 
HETATM   33  C12 UNL     1      -3.815  49.460 -28.323  1.00  0.00     0.001 A 
HETATM   34  N3  UNL     1       0.186  54.204 -26.401  1.00  0.00    -0.366 N 
HETATM   35  C18 UNL     1       0.336  53.965 -25.138  1.00  0.00     0.148 A 
ATOM     36  H3  UNL     1       0.566  54.978 -26.944  1.00  0.00     0.162 HD
BRANCH  35  37
HETATM   37  O3  UNL     1       1.061  54.786 -24.388  1.00  0.00    -0.346 OA
HETATM   38  H22 UNL     1       1.390  55.489 -24.973  1.00  0.00     0.219 HD
ENDBRANCH  35  37
ENDBRANCH  17  22
ENDBRANCH   3  13
TORSDOF 7
ENDMDL
