MODEL 1
REMARK minimizedAffinity -6.30994225
REMARK CNNscore 0.173572063
REMARK CNNaffinity 6.52108145
REMARK  10 active torsions:
REMARK  status: ('A' for Active; 'I' for Inactive)
REMARK    1  A    between atoms: C16_18  and  C17_19 
REMARK    2  A    between atoms: C26_30  and  C27_31 
REMARK    3  A    between atoms: C27_31  and  O1_33 
REMARK    4  A    between atoms: C30_35  and  C31_36 
REMARK    5  A    between atoms: C31_36  and  O3_38 
REMARK    6  A    between atoms: C37_44  and  O4_45 
REMARK    7  A    between atoms: C41_49  and  C42_50 
REMARK    8  A    between atoms: C41_49  and  C43_52 
REMARK    9  A    between atoms: C42_50  and  O5_51 
REMARK   10  A    between atoms: C43_52  and  O7_54 
ROOT
HETATM    1  C17 UNL     1     -16.957  -1.365  28.005  1.00  0.00     0.013 A 
HETATM    2  C18 UNL     1     -16.545  -2.585  28.599  1.00  0.00     0.053 A 
HETATM    3  N3  UNL     1     -15.504  -2.834  29.465  1.00  0.00    -0.357 N 
HETATM    4  C19 UNL     1     -15.460  -4.162  29.824  1.00  0.00     0.038 A 
HETATM    5  C20 UNL     1     -16.485  -4.803  29.145  1.00  0.00    -0.020 A 
HETATM    6  C21 UNL     1     -16.819  -6.256  29.230  1.00  0.00     0.072 C 
HETATM    7  C22 UNL     1     -15.621  -7.180  28.960  1.00  0.00     0.277 C 
HETATM    8  N4  UNL     1     -14.404  -7.005  29.765  1.00  0.00     0.096 N 
HETATM    9  C23 UNL     1     -13.248  -6.544  28.976  1.00  0.00     0.277 C 
HETATM   10  C24 UNL     1     -12.287  -5.747  29.884  1.00  0.00     0.016 C 
HETATM   11  C25 UNL     1     -12.020  -6.567  31.155  1.00  0.00     0.015 C 
HETATM   12  C26 UNL     1     -13.340  -6.728  31.938  1.00  0.00     0.049 C 
HETATM   13  C29 UNL     1     -14.532  -6.253  31.037  1.00  0.00     0.253 C 
HETATM   14  C30 UNL     1     -14.418  -4.691  30.810  1.00  0.00     0.122 C 
HETATM   15  C33 UNL     1     -12.970  -4.419  30.270  1.00  0.00     0.035 C 
HETATM   16  C34 UNL     1     -17.172  -3.807  28.378  1.00  0.00    -0.000 A 
HETATM   17  C35 UNL     1     -18.278  -3.844  27.515  1.00  0.00     0.017 A 
HETATM   18  C36 UNL     1     -18.728  -2.666  26.912  1.00  0.00     0.038 A 
HETATM   19  C37 UNL     1     -18.089  -1.447  27.148  1.00  0.00     0.077 A 
HETATM   20  H19 UNL     1     -14.857  -2.128  29.792  1.00  0.00     0.166 HD
ENDROOT
BRANCH   1  21
HETATM   21  C16 UNL     1     -16.254  -0.018  28.252  1.00  0.00     0.075 C 
HETATM   22  C9  UNL     1     -16.724   0.627  29.541  1.00  0.00     0.025 A 
HETATM   23  C8  UNL     1     -17.232   1.879  29.871  1.00  0.00    -0.020 A 
HETATM   24  N2  UNL     1     -16.607  -0.078  30.722  1.00  0.00    -0.358 N 
HETATM   25  C7  UNL     1     -17.588   2.987  28.932  1.00  0.00     0.079 C 
HETATM   26  C15 UNL     1     -17.334   1.939  31.297  1.00  0.00    -0.001 A 
HETATM   27  C6  UNL     1     -16.414   3.831  28.364  1.00  0.00     0.248 C 
HETATM   28  N1  UNL     1     -16.836   4.630  27.172  1.00  0.00     0.094 N 
HETATM   29  C41 UNL     1     -15.093   3.080  27.976  1.00  0.00     0.107 C 
HETATM   30  C4  UNL     1     -17.075   3.824  25.963  1.00  0.00     0.306 C 
HETATM   31  C5  UNL     1     -17.957   5.527  27.438  1.00  0.00     0.310 C 
HETATM   32  C3  UNL     1     -15.914   2.896  25.632  1.00  0.00    -0.051 C 
HETATM   33  C2  UNL     1     -15.330   2.779  24.423  1.00  0.00    -0.026 C 
HETATM   34  C40 UNL     1     -15.384   2.071  26.819  1.00  0.00     0.039 C 
HETATM   35  C1  UNL     1     -15.676   3.490  23.153  1.00  0.00     0.036 C 
HETATM   36  C39 UNL     1     -16.373   0.875  27.006  1.00  0.00     0.026 C 
HETATM   37  C10 UNL     1     -16.952   0.694  31.798  1.00  0.00     0.043 A 
HETATM   38  C14 UNL     1     -17.708   2.949  32.207  1.00  0.00     0.014 A 
HETATM   39  C11 UNL     1     -16.938   0.400  33.168  1.00  0.00     0.030 A 
HETATM   40  C12 UNL     1     -17.312   1.417  34.052  1.00  0.00     0.002 A 
HETATM   41  C13 UNL     1     -17.685   2.679  33.581  1.00  0.00     0.001 A 
HETATM   42  H13 UNL     1     -16.248  -1.024  30.786  1.00  0.00     0.166 HD
BRANCH  29  43
HETATM   43  C42 UNL     1     -14.031   4.162  27.528  1.00  0.00     0.186 C 
BRANCH  43  44
HETATM   44  O5  UNL     1     -13.671   5.068  28.570  1.00  0.00    -0.399 OA
HETATM   45  H51 UNL     1     -13.081   4.586  29.173  1.00  0.00     0.209 HD
ENDBRANCH  43  44
ENDBRANCH  29  43
BRANCH  29  46
HETATM   46  C43 UNL     1     -14.339   2.445  29.153  1.00  0.00     0.272 C 
HETATM   47  O6  UNL     1     -14.493   2.757  30.329  1.00  0.00    -0.264 OA
BRANCH  46  48
HETATM   48  O7  UNL     1     -13.523   1.422  28.739  1.00  0.00    -0.326 OA
HETATM   49  C44 UNL     1     -12.151   1.789  28.608  1.00  0.00     0.213 C 
ENDBRANCH  46  48
ENDBRANCH  29  46
ENDBRANCH   1  21
BRANCH  19  50
HETATM   50  O4  UNL     1     -18.497  -0.260  26.592  1.00  0.00    -0.355 OA
HETATM   51  C38 UNL     1     -19.725  -0.239  25.876  1.00  0.00     0.210 C 
ENDBRANCH  19  50
BRANCH  14  52
HETATM   52  C31 UNL     1     -14.650  -3.906  32.124  1.00  0.00     0.275 C 
HETATM   53  O2  UNL     1     -13.744  -3.570  32.884  1.00  0.00    -0.264 OA
BRANCH  52  54
HETATM   54  O3  UNL     1     -15.962  -3.576  32.297  1.00  0.00    -0.326 OA
HETATM   55  C32 UNL     1     -16.642  -4.335  33.300  1.00  0.00     0.213 C 
ENDBRANCH  52  54
ENDBRANCH  14  52
BRANCH  12  56
HETATM   56  C27 UNL     1     -13.477  -8.124  32.583  1.00  0.00     0.120 C 
HETATM   57  C28 UNL     1     -14.657  -8.346  33.518  1.00  0.00     0.040 C 
BRANCH  56  58
HETATM   58  O1  UNL     1     -12.273  -8.437  33.295  1.00  0.00    -0.396 OA
HETATM   59  H34 UNL     1     -12.250  -7.894  34.095  1.00  0.00     0.210 HD
ENDBRANCH  56  58
ENDBRANCH  12  56
TORSDOF 10
ENDMDL
