MODEL 1
REMARK minimizedAffinity -9.48113537
REMARK CNNscore 0.464182377
REMARK CNNaffinity 7.29952192
REMARK  4 active torsions:
REMARK  status: ('A' for Active; 'I' for Inactive)
REMARK    1  A    between atoms: C2_2  and  C3_3 
REMARK    2  A    between atoms: C6_6  and  O1_7 
REMARK    3  A    between atoms: C7_8  and  C8_9 
REMARK    4  A    between atoms: C26_32  and  O6_33 
ROOT
HETATM    1  C3  UNL     1      -2.780  10.951  15.245  1.00  0.00     0.008 C 
HETATM    2  C4  UNL     1      -1.566  10.094  15.526  1.00  0.00    -0.023 C 
HETATM    3  C5  UNL     1      -0.656   9.588  14.671  1.00  0.00     0.004 C 
HETATM    4  C6  UNL     1      -0.507   9.684  13.165  1.00  0.00     0.174 C 
HETATM    5  C7  UNL     1       0.125   8.410  12.512  1.00  0.00     0.187 C 
HETATM    6  O2  UNL     1      -0.706   7.233  12.654  1.00  0.00    -0.308 OA
HETATM    7  C12 UNL     1      -0.240   6.305  13.543  1.00  0.00     0.276 C 
HETATM    8  O3  UNL     1       0.651   6.523  14.361  1.00  0.00    -0.264 OA
HETATM    9  C13 UNL     1      -0.808   4.877  13.251  1.00  0.00     0.095 C 
HETATM   10  C14 UNL     1      -0.398   3.954  14.422  1.00  0.00     0.036 C 
HETATM   11  C15 UNL     1      -0.011   4.447  12.030  1.00  0.00     0.003 C 
HETATM   12  C16 UNL     1      -0.269   3.500  11.123  1.00  0.00     0.072 C 
HETATM   13  C17 UNL     1      -1.408   2.578  11.059  1.00  0.00     0.245 C 
HETATM   14  O4  UNL     1      -1.301   1.563  10.372  1.00  0.00    -0.268 OA
HETATM   15  N1  UNL     1      -2.581   2.860  11.665  1.00  0.00    -0.320 N 
HETATM   16  C18 UNL     1      -3.049   3.888  12.447  1.00  0.00     0.098 C 
HETATM   17  C19 UNL     1      -2.327   4.815  13.107  1.00  0.00     0.045 C 
HETATM   18  C20 UNL     1      -3.082   5.771  13.975  1.00  0.00     0.194 C 
HETATM   19  O5  UNL     1      -2.546   6.314  14.933  1.00  0.00    -0.287 OA
HETATM   20  C21 UNL     1      -4.522   5.977  13.754  1.00  0.00     0.046 A 
HETATM   21  C22 UNL     1      -5.254   4.956  13.183  1.00  0.00     0.032 A 
HETATM   22  C23 UNL     1      -6.655   5.026  13.130  1.00  0.00     0.026 A 
HETATM   23  C24 UNL     1      -7.339   6.146  13.631  1.00  0.00    -0.027 A 
HETATM   24  C25 UNL     1      -8.839   6.181  13.554  1.00  0.00     0.051 C 
HETATM   25  C26 UNL     1      -6.584   7.215  14.133  1.00  0.00     0.086 A 
HETATM   26  C27 UNL     1      -5.186   7.128  14.192  1.00  0.00     0.059 A 
HETATM   27  C28 UNL     1      -4.395   8.341  14.435  1.00  0.00     0.163 C 
HETATM   28  O7  UNL     1      -3.811   8.791  13.452  1.00  0.00    -0.292 OA
HETATM   29  C29 UNL     1      -4.297   8.883  15.844  1.00  0.00     0.084 C 
HETATM   30  C30 UNL     1      -4.060  10.396  15.921  1.00  0.00     0.016 C 
HETATM   31  C31 UNL     1      -4.548   3.817  12.593  1.00  0.00     0.210 C 
HETATM   32  O8  UNL     1      -5.168   2.839  12.183  1.00  0.00    -0.285 OA
HETATM   33  H24 UNL     1      -3.299   2.184  11.395  1.00  0.00     0.169 HD
ENDROOT
BRANCH   5  34
HETATM   34  C8  UNL     1       0.310   8.577  11.018  1.00  0.00     0.010 C 
HETATM   35  C9  UNL     1       1.184   7.962  10.196  1.00  0.00    -0.089 C 
HETATM   36  C10 UNL     1       2.202   6.932  10.607  1.00  0.00     0.042 C 
HETATM   37  C11 UNL     1       1.202   8.290   8.724  1.00  0.00     0.042 C 
ENDBRANCH   5  34
BRANCH   4  38
HETATM   38  O1  UNL     1      -1.722  10.030  12.514  1.00  0.00    -0.389 OA
HETATM   39  H10 UNL     1      -2.413   9.418  12.851  1.00  0.00     0.210 HD
ENDBRANCH   4  38
BRANCH   1  40
HETATM   40  C2  UNL     1      -2.478  12.395  15.706  1.00  0.00     0.004 C 
HETATM   41  C1  UNL     1      -1.816  13.249  14.633  1.00  0.00     0.006 C 
ENDBRANCH   1  40
BRANCH  25  42
HETATM   42  O6  UNL     1      -7.178   8.375  14.551  1.00  0.00    -0.359 OA
HETATM   43  H29 UNL     1      -8.122   8.376  14.330  1.00  0.00     0.217 HD
ENDBRANCH  25  42
TORSDOF 4
ENDMDL
