MODEL 1
REMARK minimizedAffinity -8.14372826
REMARK CNNscore 0.523666263
REMARK CNNaffinity 7.53294134
REMARK  6 active torsions:
REMARK  status: ('A' for Active; 'I' for Inactive)
REMARK    1  A    between atoms: C2_2  and  C4_4 
REMARK    2  A    between atoms: C4_4  and  O1_5 
REMARK    3  A    between atoms: C4_4  and  C5_6 
REMARK    4  A    between atoms: C5_6  and  C6_7 
REMARK    5  A    between atoms: C6_7  and  C7_8 
REMARK    6  A    between atoms: C7_8  and  C9_10 
ROOT
HETATM    1  C9  UNL     1       0.261   6.901  12.599  1.00  0.00    -0.001 C 
HETATM    2  C10 UNL     1       0.538   5.678  13.520  1.00  0.00     0.007 C 
HETATM    3  C11 UNL     1      -0.699   5.478  14.412  1.00  0.00     0.024 C 
HETATM    4  C12 UNL     1      -1.731   6.423  13.841  1.00  0.00     0.092 C 
HETATM    5  C13 UNL     1      -2.533   5.767  12.684  1.00  0.00     0.272 C 
HETATM    6  O2  UNL     1      -2.179   4.863  11.948  1.00  0.00    -0.264 OA
HETATM    7  O3  UNL     1      -3.768   6.386  12.602  1.00  0.00    -0.305 OA
HETATM    8  C14 UNL     1      -3.851   7.399  13.632  1.00  0.00     0.113 C 
HETATM    9  C15 UNL     1      -3.248   8.703  13.018  1.00  0.00     0.043 C 
HETATM   10  C16 UNL     1      -1.838   8.497  12.395  1.00  0.00     0.014 C 
HETATM   11  C17 UNL     1      -0.912   7.649  13.308  1.00  0.00    -0.020 C 
HETATM   12  C18 UNL     1      -0.391   8.565  14.438  1.00  0.00     0.017 C 
HETATM   13  C19 UNL     1      -2.891   6.855  14.649  1.00  0.00     0.137 A 
HETATM   14  O4  UNL     1      -2.748   7.451  15.925  1.00  0.00    -0.364 OA
HETATM   15  C20 UNL     1      -3.352   6.143  15.903  1.00  0.00     0.162 A 
HETATM   16  C21 UNL     1      -4.812   6.109  16.244  1.00  0.00     0.042 C 
HETATM   17  C22 UNL     1      -5.660   6.182  14.955  1.00  0.00     0.014 C 
HETATM   18  C23 UNL     1      -7.176   5.831  15.130  1.00  0.00     0.018 C 
HETATM   19  C24 UNL     1      -7.329   4.390  15.668  1.00  0.00     0.023 C 
HETATM   20  C25 UNL     1      -7.954   6.774  16.057  1.00  0.00     0.023 C 
HETATM   21  C26 UNL     1      -7.857   5.864  13.751  1.00  0.00     0.135 C 
HETATM   22  O5  UNL     1      -9.024   5.501  13.594  1.00  0.00    -0.297 OA
HETATM   23  C27 UNL     1      -7.038   6.344  12.576  1.00  0.00     0.080 C 
HETATM   24  C28 UNL     1      -6.338   7.642  12.953  1.00  0.00     0.020 C 
HETATM   25  C29 UNL     1      -5.341   7.508  14.147  1.00  0.00    -0.004 C 
HETATM   26  C30 UNL     1      -5.485   8.795  15.002  1.00  0.00     0.019 C 
ENDROOT
BRANCH   1  27
HETATM   27  C7  UNL     1       1.559   7.614  12.112  1.00  0.00    -0.014 C 
HETATM   28  C8  UNL     1       2.174   8.655  13.057  1.00  0.00     0.010 C 
BRANCH  27  29
HETATM   29  C6  UNL     1       1.387   8.191  10.691  1.00  0.00     0.007 C 
BRANCH  29  30
HETATM   30  C5  UNL     1       2.626   8.124   9.780  1.00  0.00     0.036 C 
BRANCH  30  31
HETATM   31  C4  UNL     1       2.336   8.330   8.285  1.00  0.00     0.146 C 
BRANCH  31  32
HETATM   32  C2  UNL     1       2.272   7.028   7.511  1.00  0.00    -0.065 C 
HETATM   33  C1  UNL     1       2.756   5.885   8.029  1.00  0.00     0.016 C 
HETATM   34  C3  UNL     1       1.643   7.038   6.144  1.00  0.00     0.045 C 
ENDBRANCH  31  32
BRANCH  31  35
HETATM   35  O1  UNL     1       3.320   9.173   7.695  1.00  0.00    -0.391 OA
HETATM   36  H7  UNL     1       4.192   8.814   7.920  1.00  0.00     0.210 HD
ENDBRANCH  31  35
ENDBRANCH  30  31
ENDBRANCH  29  30
ENDBRANCH  27  29
ENDBRANCH   1  27
TORSDOF 6
ENDMDL
