MODEL 1
REMARK minimizedAffinity -10.6960182
REMARK  6 active torsions:
REMARK  status: ('A' for Active; 'I' for Inactive)
REMARK    1  A    between atoms: C3_3  and  O1_4 
REMARK    2  A    between atoms: N1_14  and  O2_16 
REMARK    3  A    between atoms: O2_16  and  C13_17 
REMARK    4  A    between atoms: C13_17  and  C14_18 
REMARK       I    between atoms: C14_18  and  N2_20 
REMARK    5  A    between atoms: N2_20  and  C15_21 
REMARK    6  A    between atoms: C15_21  and  C17_23 
ROOT
HETATM    1  C1  UNL     1      -8.952   5.846  11.970  1.00  0.00     0.015 C 
HETATM    2  C2  UNL     1      -8.408   5.994  13.031  1.00  0.00    -0.078 C 
HETATM    3  C3  UNL     1      -7.769   6.178  14.353  1.00  0.00     0.128 C 
HETATM    4  C4  UNL     1      -7.849   7.666  14.782  1.00  0.00     0.052 C 
HETATM    5  C5  UNL     1      -6.472   8.291  14.476  1.00  0.00     0.010 C 
HETATM    6  C6  UNL     1      -5.699   7.197  13.740  1.00  0.00     0.002 C 
HETATM    7  C7  UNL     1      -4.167   7.269  13.729  1.00  0.00    -0.004 C 
HETATM    8  C8  UNL     1      -3.673   8.580  13.105  1.00  0.00     0.010 C 
HETATM    9  C9  UNL     1      -2.151   8.644  13.097  1.00  0.00     0.035 C 
HETATM   10  C10 UNL     1      -1.527   7.447  12.420  1.00  0.00    -0.069 C 
HETATM   11  C11 UNL     1      -0.557   7.637  11.506  1.00  0.00     0.030 C 
HETATM   12  C12 UNL     1       0.201   6.508  10.912  1.00  0.00     0.032 C 
HETATM   13  N1  UNL     1       1.139   6.795  10.053  1.00  0.00    -0.271 N 
ATOM     14  H1  UNL     1       1.348   7.738   9.726  1.00  0.00     0.194 HD
HETATM   15  C23 UNL     1      -0.115   5.110  11.397  1.00  0.00     0.060 C 
HETATM   16  C24 UNL     1      -1.574   4.996  11.816  1.00  0.00     0.020 C 
HETATM   17  C25 UNL     1      -2.020   6.063  12.858  1.00  0.00    -0.016 C 
HETATM   18  C26 UNL     1      -1.377   5.734  14.223  1.00  0.00     0.020 C 
HETATM   19  C27 UNL     1      -3.597   6.057  12.930  1.00  0.00     0.002 C 
HETATM   20  C28 UNL     1      -4.198   4.704  13.404  1.00  0.00     0.007 C 
HETATM   21  C29 UNL     1      -5.733   4.716  13.512  1.00  0.00     0.014 C 
HETATM   22  C30 UNL     1      -6.237   5.892  14.367  1.00  0.00     0.003 C 
HETATM   23  C31 UNL     1      -5.770   5.667  15.837  1.00  0.00     0.020 C 
ENDROOT
BRANCH   3  24
HETATM   24  O1  UNL     1      -8.461   5.362  15.290  1.00  0.00    -0.377 OA
HETATM   25  H2  UNL     1      -9.410   5.525  15.156  1.00  0.00     0.211 HD
ENDBRANCH   3  24
BRANCH  13  26
HETATM   26  O2  UNL     1       1.825   5.645   9.635  1.00  0.00    -0.271 OA
BRANCH  26  27
HETATM   27  C13 UNL     1       2.852   6.033   8.734  1.00  0.00     0.303 C 
BRANCH  27  28
HETATM   28  C14 UNL     1       3.766   7.043   9.415  1.00  0.00     0.244 C 
HETATM   29  O3  UNL     1       3.722   8.247   9.173  1.00  0.00    -0.271 OA
HETATM   30  N2  UNL     1       4.649   6.498  10.324  1.00  0.00    -0.351 N 
HETATM   31  H16 UNL     1       4.561   5.525  10.586  1.00  0.00     0.163 HD
BRANCH  30  32
HETATM   32  C15 UNL     1       5.581   7.321  11.078  1.00  0.00     0.113 C 
HETATM   33  C16 UNL     1       6.982   6.698  11.089  1.00  0.00     0.037 C 
BRANCH  32  34
HETATM   34  C17 UNL     1       5.018   7.571  12.468  1.00  0.00    -0.036 A 
HETATM   35  C18 UNL     1       5.828   7.592  13.614  1.00  0.00     0.009 A 
HETATM   36  C19 UNL     1       5.269   7.804  14.878  1.00  0.00     0.001 A 
HETATM   37  C20 UNL     1       3.896   7.987  15.014  1.00  0.00     0.000 A 
HETATM   38  C21 UNL     1       3.075   7.947  13.888  1.00  0.00     0.001 A 
HETATM   39  C22 UNL     1       3.631   7.735  12.625  1.00  0.00     0.009 A 
ENDBRANCH  32  34
ENDBRANCH  30  32
ENDBRANCH  27  28
ENDBRANCH  26  27
ENDBRANCH  13  26
TORSDOF 6
ENDMDL
