MODEL 1
REMARK minimizedAffinity -9.16974831
REMARK  7 active torsions:
REMARK  status: ('A' for Active; 'I' for Inactive)
REMARK    1  A    between atoms: C2_2  and  C30_32 
REMARK    2  A    between atoms: C3_3  and  C4_4 
REMARK    3  A    between atoms: C4_4  and  C5_5 
REMARK    4  A    between atoms: C5_5  and  C6_6 
REMARK    5  A    between atoms: C6_6  and  C8_8 
REMARK    6  A    between atoms: C29_30  and  O2_31 
REMARK    7  A    between atoms: C30_32  and  O3_33 
ROOT
HETATM    1  C8  UNL     1      -3.008   8.331  15.203  1.00  0.00    -0.002 C 
HETATM    2  C9  UNL     1      -1.914   8.052  16.275  1.00  0.00     0.007 C 
HETATM    3  C10 UNL     1      -0.562   7.942  15.546  1.00  0.00     0.015 C 
HETATM    4  C11 UNL     1      -0.818   8.520  14.146  1.00  0.00    -0.010 C 
HETATM    5  C12 UNL     1      -0.731  10.076  14.264  1.00  0.00     0.021 C 
HETATM    6  C13 UNL     1       0.117   8.131  12.998  1.00  0.00    -0.039 C 
HETATM    7  C14 UNL     1      -0.354   8.119  11.722  1.00  0.00    -0.066 C 
HETATM    8  C15 UNL     1      -1.822   8.435  11.410  1.00  0.00     0.036 C 
HETATM    9  C16 UNL     1      -2.782   8.653  12.598  1.00  0.00     0.015 C 
HETATM   10  C17 UNL     1      -2.274   7.966  13.872  1.00  0.00    -0.029 C 
HETATM   11  C18 UNL     1      -2.320   6.421  13.663  1.00  0.00     0.016 C 
HETATM   12  C19 UNL     1       0.541   7.707  10.519  1.00  0.00    -0.015 C 
HETATM   13  C20 UNL     1       0.208   6.221  10.246  1.00  0.00     0.020 C 
HETATM   14  C21 UNL     1       0.230   8.545   9.255  1.00  0.00     0.021 C 
HETATM   15  C22 UNL     1       1.142   8.217   8.081  1.00  0.00     0.080 C 
HETATM   16  C23 UNL     1       2.595   8.409   8.433  1.00  0.00     0.135 C 
HETATM   17  O1  UNL     1       3.351   8.936   7.613  1.00  0.00    -0.297 OA
HETATM   18  C24 UNL     1       3.112   7.804   9.748  1.00  0.00     0.018 C 
HETATM   19  C25 UNL     1       4.392   8.593  10.140  1.00  0.00     0.023 C 
HETATM   20  C26 UNL     1       3.546   6.356   9.471  1.00  0.00     0.023 C 
HETATM   21  C27 UNL     1       2.046   7.978  10.884  1.00  0.00     0.016 C 
HETATM   22  C28 UNL     1       2.396   7.246  12.193  1.00  0.00     0.043 C 
HETATM   23  C29 UNL     1       1.549   7.776  13.354  1.00  0.00     0.148 C 
ENDROOT
BRANCH   1  24
HETATM   24  C6  UNL     1      -4.364   7.655  15.553  1.00  0.00    -0.014 C 
HETATM   25  C7  UNL     1      -4.238   6.148  15.789  1.00  0.00     0.010 C 
BRANCH  24  26
HETATM   26  C5  UNL     1      -5.497   7.943  14.525  1.00  0.00     0.008 C 
BRANCH  26  27
HETATM   27  C4  UNL     1      -5.740   6.928  13.398  1.00  0.00     0.028 C 
BRANCH  27  28
HETATM   28  C3  UNL     1      -6.670   5.801  13.741  1.00  0.00    -0.022 C 
HETATM   29  C2  UNL     1      -6.522   4.496  13.436  1.00  0.00    -0.064 C 
HETATM   30  C1  UNL     1      -5.359   3.928  12.667  1.00  0.00     0.045 C 
BRANCH  29  31
HETATM   31  C30 UNL     1      -7.546   3.482  13.872  1.00  0.00     0.197 C 
BRANCH  31  32
HETATM   32  O3  UNL     1      -8.704   3.634  13.066  1.00  0.00    -0.397 OA
HETATM   33  H48 UNL     1      -9.329   2.942  13.340  1.00  0.00     0.209 HD
ENDBRANCH  31  32
ENDBRANCH  29  31
ENDBRANCH  27  28
ENDBRANCH  26  27
ENDBRANCH  24  26
ENDBRANCH   1  24
BRANCH  23  34
HETATM   34  O2  UNL     1       2.203   8.941  13.856  1.00  0.00    -0.391 OA
HETATM   35  H45 UNL     1       1.880   9.695  13.337  1.00  0.00     0.210 HD
ENDBRANCH  23  34
TORSDOF 7
ENDMDL
