MODEL 1
REMARK minimizedAffinity -8.15330505
REMARK CNNscore 0.44284749
REMARK CNNaffinity 6.18883848
REMARK  13 active torsions:
REMARK  status: ('A' for Active; 'I' for Inactive)
REMARK    1  A    between atoms: C3_3  and  O1_4 
REMARK    2  A    between atoms: N1_14  and  O2_16 
REMARK    3  A    between atoms: O2_16  and  C13_17 
REMARK    4  A    between atoms: C13_17  and  C14_18 
REMARK       I    between atoms: C14_18  and  N2_20 
REMARK    5  A    between atoms: N2_20  and  C15_21 
REMARK    6  A    between atoms: C15_21  and  C16_22 
REMARK    7  A    between atoms: C15_21  and  C21_33 
REMARK       I    between atoms: C16_22  and  N3_24 
REMARK    8  A    between atoms: N3_24  and  C17_25 
REMARK    9  A    between atoms: C17_25  and  C18_26 
REMARK   10  A    between atoms: C17_25  and  C20_30 
REMARK   11  A    between atoms: C18_26  and  C19_27 
REMARK   12  A    between atoms: C19_27  and  O6_29 
REMARK   13  A    between atoms: C20_30  and  O8_32 
ROOT
HETATM    1  C1  UNL     1       0.834  50.753 -26.334  1.00  0.00     0.015 C 
HETATM    2  C2  UNL     1      -0.316  51.097 -26.294  1.00  0.00    -0.078 C 
HETATM    3  C3  UNL     1      -1.731  51.531 -26.259  1.00  0.00     0.128 C 
HETATM    4  C4  UNL     1      -2.481  50.951 -27.464  1.00  0.00     0.052 C 
HETATM    5  C5  UNL     1      -3.053  49.612 -26.995  1.00  0.00     0.010 C 
HETATM    6  C6  UNL     1      -2.822  49.523 -25.467  1.00  0.00     0.002 C 
HETATM    7  C7  UNL     1      -3.988  48.802 -24.749  1.00  0.00    -0.004 C 
HETATM    8  C8  UNL     1      -3.523  48.188 -23.404  1.00  0.00     0.010 C 
HETATM    9  C9  UNL     1      -4.619  48.062 -22.349  1.00  0.00     0.035 C 
HETATM   10  C10 UNL     1      -5.936  47.783 -23.009  1.00  0.00    -0.069 C 
HETATM   11  C11 UNL     1      -6.559  46.606 -22.829  1.00  0.00     0.030 C 
HETATM   12  C12 UNL     1      -7.831  46.282 -23.523  1.00  0.00     0.032 C 
HETATM   13  N1  UNL     1      -8.442  45.184 -23.180  1.00  0.00    -0.271 N 
ATOM     14  H1  UNL     1      -8.090  44.524 -22.487  1.00  0.00     0.194 HD
HETATM   15  C24 UNL     1      -8.358  47.255 -24.561  1.00  0.00     0.060 C 
HETATM   16  C25 UNL     1      -7.274  48.202 -25.066  1.00  0.00     0.020 C 
HETATM   17  C26 UNL     1      -6.452  48.882 -23.933  1.00  0.00    -0.016 C 
HETATM   18  C27 UNL     1      -7.387  49.807 -23.124  1.00  0.00     0.020 C 
HETATM   19  C28 UNL     1      -5.261  49.681 -24.611  1.00  0.00     0.002 C 
HETATM   20  C29 UNL     1      -4.896  51.038 -23.979  1.00  0.00     0.007 C 
HETATM   21  C30 UNL     1      -3.851  51.778 -24.820  1.00  0.00     0.014 C 
HETATM   22  C31 UNL     1      -2.533  50.985 -25.030  1.00  0.00     0.003 C 
HETATM   23  C32 UNL     1      -1.710  51.086 -23.729  1.00  0.00     0.020 C 
ENDROOT
BRANCH   3  24
HETATM   24  O1  UNL     1      -1.763  52.951 -26.320  1.00  0.00    -0.377 OA
HETATM   25  H2  UNL     1      -1.166  53.276 -25.623  1.00  0.00     0.211 HD
ENDBRANCH   3  24
BRANCH  13  26
HETATM   26  O2  UNL     1      -9.644  45.022 -23.882  1.00  0.00    -0.271 OA
BRANCH  26  27
HETATM   27  C13 UNL     1     -10.733  45.001 -22.962  1.00  0.00     0.303 C 
BRANCH  27  28
HETATM   28  C14 UNL     1     -12.054  44.721 -23.675  1.00  0.00     0.244 C 
HETATM   29  O3  UNL     1     -12.759  43.751 -23.398  1.00  0.00    -0.271 OA
HETATM   30  N2  UNL     1     -12.392  45.631 -24.646  1.00  0.00    -0.346 N 
HETATM   31  H16 UNL     1     -11.788  46.440 -24.779  1.00  0.00     0.163 HD
BRANCH  30  32
HETATM   32  C15 UNL     1     -13.638  45.580 -25.401  1.00  0.00     0.180 C 
BRANCH  32  33
HETATM   33  C16 UNL     1     -14.652  46.459 -24.635  1.00  0.00     0.241 C 
HETATM   34  O4  UNL     1     -14.330  47.514 -24.086  1.00  0.00    -0.271 OA
HETATM   35  N3  UNL     1     -15.941  45.993 -24.623  1.00  0.00    -0.344 N 
HETATM   36  H18 UNL     1     -16.168  45.095 -25.044  1.00  0.00     0.163 HD
BRANCH  35  37
HETATM   37  C17 UNL     1     -17.035  46.718 -23.972  1.00  0.00     0.192 C 
BRANCH  37  38
HETATM   38  C18 UNL     1     -17.361  46.167 -22.583  1.00  0.00     0.146 C 
BRANCH  38  39
HETATM   39  C19 UNL     1     -17.074  44.698 -22.469  1.00  0.00     0.141 C 
HETATM   40  O5  UNL     1     -16.004  44.168 -22.226  1.00  0.00    -0.650 OA
BRANCH  39  41
HETATM   41  O6  UNL     1     -18.177  43.951 -22.672  1.00  0.00    -0.776 OA
HETATM   42  H22 UNL     1     -17.875  43.025 -22.560  1.00  0.00     0.167 HD
ENDBRANCH  39  41
ENDBRANCH  38  39
ENDBRANCH  37  38
BRANCH  37  43
HETATM   43  C20 UNL     1     -18.246  46.730 -24.908  1.00  0.00     0.164 C 
HETATM   44  O7  UNL     1     -19.263  47.391 -24.759  1.00  0.00    -0.648 OA
BRANCH  43  45
HETATM   45  O8  UNL     1     -18.141  45.868 -25.939  1.00  0.00    -0.775 OA
HETATM   46  H23 UNL     1     -18.978  45.993 -26.437  1.00  0.00     0.167 HD
ENDBRANCH  43  45
ENDBRANCH  37  43
ENDBRANCH  35  37
ENDBRANCH  32  33
BRANCH  32  47
HETATM   47  C21 UNL     1     -13.425  46.008 -26.871  1.00  0.00     0.009 C 
HETATM   48  C22 UNL     1     -14.697  45.876 -27.711  1.00  0.00     0.012 C 
HETATM   49  C23 UNL     1     -12.853  47.424 -27.006  1.00  0.00     0.012 C 
ENDBRANCH  32  47
ENDBRANCH  30  32
ENDBRANCH  27  28
ENDBRANCH  26  27
ENDBRANCH  13  26
TORSDOF 13
ENDMDL
