MODEL 1
REMARK minimizedAffinity -8.5262537
REMARK CNNscore 0.809353352
REMARK CNNaffinity 8.10828686
REMARK  14 active torsions:
REMARK  status: ('A' for Active; 'I' for Inactive)
REMARK    1  A    between atoms: C2_2  and  C3_3 
REMARK    2  A    between atoms: C6_6  and  C7_7 
REMARK    3  A    between atoms: C7_7  and  C8_8 
REMARK    4  A    between atoms: C14_17  and  C15_18 
REMARK    5  A    between atoms: C15_18  and  O3_20 
REMARK    6  A    between atoms: C19_24  and  C20_25 
REMARK    7  A    between atoms: C20_25  and  C21_26 
REMARK    8  A    between atoms: C22_27  and  C23_28 
REMARK    9  A    between atoms: C25_30  and  C26_31 
REMARK   10  A    between atoms: C27_33  and  C28_34 
REMARK   11  A    between atoms: C29_38  and  C30_39 
REMARK   12  A    between atoms: C30_39  and  C31_40 
REMARK   13  A    between atoms: C31_40  and  C32_41 
REMARK   14  A    between atoms: C32_41  and  O7_43 
ROOT
HETATM    1  C8  UNL     1       0.346  50.871 -16.344  1.00  0.00     0.016 C 
HETATM    2  N1  UNL     1      -0.528  51.045 -15.407  1.00  0.00    -0.362 N 
ATOM      3  H1  UNL     1      -1.531  50.870 -15.477  1.00  0.00     0.165 HD
HETATM    4  C9  UNL     1       0.142  51.510 -14.297  1.00  0.00     0.024 C 
HETATM    5  C10 UNL     1      -0.538  52.043 -13.271  1.00  0.00     0.014 A 
HETATM    6  C11 UNL     1      -0.020  52.629 -12.098  1.00  0.00     0.056 A 
HETATM    7  C12 UNL     1      -0.985  53.076 -11.248  1.00  0.00     0.046 A 
HETATM    8  C13 UNL     1      -2.289  52.805 -11.826  1.00  0.00     0.180 A 
HETATM    9  O1  UNL     1      -3.361  53.075 -11.303  1.00  0.00    -0.291 OA
HETATM   10  C14 UNL     1      -2.093  52.107 -13.197  1.00  0.00     0.197 A 
HETATM   11  C17 UNL     1      -0.362  53.617 -10.107  1.00  0.00    -0.023 A 
HETATM   12  C18 UNL     1      -1.068  54.194  -8.933  1.00  0.00     0.051 C 
HETATM   13  C19 UNL     1       1.020  53.463 -10.321  1.00  0.00     0.022 A 
HETATM   14  N3  UNL     1       1.196  52.865 -11.571  1.00  0.00    -0.357 N 
HETATM   15  C29 UNL     1       1.642  51.382 -14.460  1.00  0.00     0.046 C 
HETATM   16  C33 UNL     1       1.774  51.209 -15.982  1.00  0.00     0.041 C 
HETATM   17  C34 UNL     1       2.195  52.503 -16.671  1.00  0.00     0.017 C 
HETATM   18  H25 UNL     1       2.094  52.645 -11.976  1.00  0.00     0.166 HD
ENDROOT
BRANCH  10  19
HETATM   19  C15 UNL     1      -2.700  50.729 -13.173  1.00  0.00     0.274 C 
HETATM   20  O2  UNL     1      -3.248  50.175 -14.119  1.00  0.00    -0.264 OA
BRANCH  19  21
HETATM   21  O3  UNL     1      -2.516  50.158 -11.947  1.00  0.00    -0.326 OA
HETATM   22  C16 UNL     1      -1.951  48.848 -11.998  1.00  0.00     0.213 C 
ENDBRANCH  19  21
ENDBRANCH  10  19
BRANCH  15  23
HETATM   23  C30 UNL     1       2.167  50.173 -13.660  1.00  0.00     0.022 C 
BRANCH  23  24
HETATM   24  C31 UNL     1       3.126  50.570 -12.540  1.00  0.00     0.110 C 
BRANCH  24  25
HETATM   25  C32 UNL     1       4.421  49.813 -12.624  1.00  0.00     0.139 C 
HETATM   26  O6  UNL     1       5.138  49.503 -11.687  1.00  0.00    -0.650 OA
BRANCH  25  27
HETATM   27  O7  UNL     1       4.767  49.517 -13.887  1.00  0.00    -0.776 OA
HETATM   28  H31 UNL     1       5.616  49.037 -13.814  1.00  0.00     0.167 HD
ENDBRANCH  25  27
ENDBRANCH  24  25
ENDBRANCH  23  24
ENDBRANCH  15  23
BRANCH   1  29
HETATM   29  C7  UNL     1      -0.015  50.491 -17.724  1.00  0.00     0.055 C 
BRANCH  29  30
HETATM   30  C6  UNL     1       0.005  51.279 -18.803  1.00  0.00     0.043 A 
HETATM   31  C4  UNL     1      -0.031  51.025 -20.231  1.00  0.00    -0.019 A 
HETATM   32  C3  UNL     1       0.100  52.178 -20.930  1.00  0.00     0.039 A 
HETATM   33  C5  UNL     1      -0.223  49.661 -20.795  1.00  0.00     0.052 C 
HETATM   34  C35 UNL     1       0.193  53.261 -19.901  1.00  0.00     0.256 A 
HETATM   35  N4  UNL     1       0.103  52.633 -18.684  1.00  0.00    -0.322 N 
HETATM   36  O8  UNL     1       0.334  54.456 -20.074  1.00  0.00    -0.267 OA
HETATM   37  H36 UNL     1       0.134  53.154 -17.821  1.00  0.00     0.169 HD
BRANCH  32  38
HETATM   38  C2  UNL     1       0.147  52.364 -22.362  1.00  0.00     0.007 C 
HETATM   39  C1  UNL     1      -0.895  52.344 -23.200  1.00  0.00     0.012 C 
ENDBRANCH  32  38
ENDBRANCH  29  30
ENDBRANCH   1  29
BRANCH  13  40
HETATM   40  C20 UNL     1       2.240  53.751  -9.486  1.00  0.00     0.115 C 
BRANCH  40  41
HETATM   41  C21 UNL     1       2.118  54.901  -8.537  1.00  0.00     0.022 A 
HETATM   42  C22 UNL     1       2.728  56.147  -8.511  1.00  0.00    -0.020 A 
HETATM   43  C25 UNL     1       2.244  56.830  -7.337  1.00  0.00     0.040 A 
HETATM   44  C27 UNL     1       1.366  55.970  -6.691  1.00  0.00     0.084 A 
HETATM   45  N2  UNL     1       1.313  54.812  -7.428  1.00  0.00    -0.356 N 
HETATM   46  H24 UNL     1       0.737  54.015  -7.176  1.00  0.00     0.166 HD
BRANCH  42  47
HETATM   47  C23 UNL     1       3.707  56.675  -9.519  1.00  0.00     0.037 C 
HETATM   48  C24 UNL     1       3.276  56.380 -10.949  1.00  0.00     0.010 C 
ENDBRANCH  42  47
BRANCH  43  49
HETATM   49  C26 UNL     1       2.605  58.169  -6.892  1.00  0.00     0.273 C 
HETATM   50  O4  UNL     1       3.513  58.406  -6.100  1.00  0.00    -0.301 OA
ENDBRANCH  43  49
BRANCH  44  51
HETATM   51  C28 UNL     1       0.595  56.123  -5.480  1.00  0.00     0.288 C 
HETATM   52  O5  UNL     1      -0.600  56.405  -5.488  1.00  0.00    -0.300 OA
ENDBRANCH  44  51
ENDBRANCH  40  41
ENDBRANCH  13  40
TORSDOF 14
ENDMDL
