MODEL 1
REMARK minimizedAffinity -7.76798201
REMARK CNNscore 0.439777523
REMARK CNNaffinity 6.07006645
REMARK  6 active torsions:
REMARK  status: ('A' for Active; 'I' for Inactive)
REMARK    1  A    between atoms: C2_2  and  C4_4 
REMARK    2  A    between atoms: C10_11  and  O2_12 
REMARK    3  A    between atoms: C26_29  and  C27_30 
REMARK    4  A    between atoms: C27_30  and  O3_33 
REMARK    5  A    between atoms: C30_34  and  O4_35 
REMARK    6  A    between atoms: C37_43  and  O6_44 
ROOT
HETATM    1  C4  UNL     1      -7.454  47.124 -28.715  1.00  0.00     0.181 C 
HETATM    2  O1  UNL     1      -7.938  45.974 -28.005  1.00  0.00    -0.370 OA
HETATM    3  C5  UNL     1      -8.815  45.143 -28.787  1.00  0.00     0.163 C 
HETATM    4  C6  UNL     1      -8.961  43.870 -27.948  1.00  0.00     0.036 C 
HETATM    5  C7  UNL     1     -10.343  43.242 -27.920  1.00  0.00     0.016 C 
HETATM    6  C8  UNL     1     -11.466  44.287 -27.712  1.00  0.00     0.007 C 
HETATM    7  C9  UNL     1     -11.155  45.126 -26.417  1.00  0.00     0.020 C 
HETATM    8  C10 UNL     1     -11.450  45.248 -28.961  1.00  0.00     0.103 C 
HETATM    9  C11 UNL     1     -12.636  46.259 -28.908  1.00  0.00     0.046 C 
HETATM   10  C12 UNL     1     -14.013  45.620 -28.677  1.00  0.00     0.038 C 
HETATM   11  C13 UNL     1     -13.956  44.670 -27.532  1.00  0.00    -0.064 A 
HETATM   12  C14 UNL     1     -14.627  44.654 -26.350  1.00  0.00     0.018 A 
HETATM   13  C15 UNL     1     -14.122  43.629 -25.503  1.00  0.00     0.001 A 
HETATM   14  C16 UNL     1     -13.127  43.006 -26.206  1.00  0.00     0.034 A 
HETATM   15  N1  UNL     1     -12.643  41.974 -25.493  1.00  0.00    -0.357 N 
HETATM   16  C17 UNL     1     -13.325  41.930 -24.287  1.00  0.00     0.044 A 
HETATM   17  C18 UNL     1     -13.173  40.989 -23.268  1.00  0.00     0.031 A 
HETATM   18  C19 UNL     1     -14.002  41.097 -22.164  1.00  0.00     0.010 A 
HETATM   19  C20 UNL     1     -14.891  42.170 -22.035  1.00  0.00    -0.044 A 
HETATM   20  C21 UNL     1     -15.839  42.146 -20.857  1.00  0.00     0.073 C 
HETATM   21  C22 UNL     1     -16.341  43.488 -20.424  1.00  0.00    -0.078 C 
HETATM   22  C23 UNL     1     -16.400  43.840 -19.130  1.00  0.00     0.015 C 
HETATM   23  C24 UNL     1     -16.823  44.417 -21.500  1.00  0.00     0.054 C 
HETATM   24  C25 UNL     1     -16.534  45.921 -21.316  1.00  0.00     0.023 C 
HETATM   25  C26 UNL     1     -15.205  45.741 -22.086  1.00  0.00     0.060 C 
HETATM   26  C30 UNL     1     -15.895  44.484 -22.811  1.00  0.00     0.100 C 
HETATM   27  C31 UNL     1     -14.989  43.191 -23.030  1.00  0.00    -0.003 A 
HETATM   28  C32 UNL     1     -14.239  43.015 -24.230  1.00  0.00     0.013 A 
HETATM   29  C33 UNL     1     -12.869  43.566 -27.569  1.00  0.00     0.033 A 
HETATM   30  C34 UNL     1     -13.222  42.484 -28.613  1.00  0.00     0.028 C 
HETATM   31  C35 UNL     1     -10.071  45.928 -29.116  1.00  0.00     0.147 A 
HETATM   32  O5  UNL     1      -9.951  46.562 -30.430  1.00  0.00    -0.360 OA
HETATM   33  C36 UNL     1      -9.919  47.437 -29.308  1.00  0.00     0.194 A 
HETATM   34  C37 UNL     1      -8.603  48.118 -29.099  1.00  0.00     0.183 C 
HETATM   35  H21 UNL     1     -11.936  41.315 -25.783  1.00  0.00     0.166 HD
ENDROOT
BRANCH  25  36
HETATM   36  C27 UNL     1     -14.732  47.008 -22.820  1.00  0.00     0.057 C 
HETATM   37  C28 UNL     1     -15.743  47.439 -23.878  1.00  0.00     0.046 C 
HETATM   38  C29 UNL     1     -13.383  46.745 -23.505  1.00  0.00     0.046 C 
BRANCH  36  39
HETATM   39  O3  UNL     1     -14.539  48.067 -21.896  1.00  0.00    -0.390 OA
HETATM   40  H38 UNL     1     -15.234  48.010 -21.211  1.00  0.00     0.210 HD
ENDBRANCH  36  39
ENDBRANCH  25  36
BRANCH  26  41
HETATM   41  O4  UNL     1     -16.657  44.839 -24.003  1.00  0.00    -0.384 OA
HETATM   42  H39 UNL     1     -17.004  43.994 -24.324  1.00  0.00     0.211 HD
ENDBRANCH  26  41
BRANCH   8  43
HETATM   43  O2  UNL     1     -11.641  44.483 -30.165  1.00  0.00    -0.386 OA
HETATM   44  H15 UNL     1     -11.416  45.090 -30.898  1.00  0.00     0.210 HD
ENDBRANCH   8  43
BRANCH  34  45
HETATM   45  O6  UNL     1      -8.814  49.156 -28.130  1.00  0.00    -0.390 OA
HETATM   46  H45 UNL     1      -9.254  49.890 -28.592  1.00  0.00     0.210 HD
ENDBRANCH  34  45
BRANCH   1  47
HETATM   47  C2  UNL     1      -6.309  47.684 -27.875  1.00  0.00    -0.062 C 
HETATM   48  C1  UNL     1      -5.169  48.176 -28.417  1.00  0.00     0.016 C 
HETATM   49  C3  UNL     1      -6.475  47.625 -26.369  1.00  0.00     0.045 C 
ENDBRANCH   1  47
TORSDOF 6
ENDMDL
