MODEL 1
REMARK minimizedAffinity -10.8622694
REMARK CNNscore 0.568043768
REMARK CNNaffinity 7.40088797
REMARK  11 active torsions:
REMARK  status: ('A' for Active; 'I' for Inactive)
REMARK    1  A    between atoms: C3_4  and  O2_5 
REMARK    2  A    between atoms: O2_5  and  C4_6 
REMARK    3  A    between atoms: C7_9  and  C8_10 
REMARK    4  A    between atoms: N1_11  and  C9_13 
REMARK    5  A    between atoms: C9_13  and  C10_14 
REMARK    6  A    between atoms: C10_14  and  C11_15 
REMARK    7  A    between atoms: C22_26  and  C23_27 
REMARK    8  A    between atoms: C29_35  and  O5_36 
REMARK    9  A    between atoms: C33_40  and  O6_41 
REMARK   10  A    between atoms: C36_44  and  O7_45 
REMARK   11  A    between atoms: C37_46  and  O8_47 
ROOT
HETATM    1  C4  UNL     1       2.094  10.451  16.042  1.00  0.00     0.127 C 
HETATM    2  C5  UNL     1       2.066  10.363  14.521  1.00  0.00     0.033 C 
HETATM    3  C6  UNL     1       0.698   9.898  14.033  1.00  0.00     0.021 C 
HETATM    4  C7  UNL     1       0.212   8.540  14.631  1.00  0.00     0.026 C 
HETATM    5  C17 UNL     1      -1.334   8.430  14.295  1.00  0.00     0.009 C 
HETATM    6  C18 UNL     1      -1.677   8.043  12.843  1.00  0.00     0.007 C 
HETATM    7  C19 UNL     1      -2.253   6.637  12.713  1.00  0.00     0.013 C 
HETATM    8  C20 UNL     1      -3.491   6.308  13.614  1.00  0.00    -0.005 C 
HETATM    9  C21 UNL     1      -3.389   4.794  13.919  1.00  0.00     0.019 C 
HETATM   10  C22 UNL     1      -4.834   6.670  12.887  1.00  0.00     0.028 C 
HETATM   11  C27 UNL     1      -5.042   8.154  13.206  1.00  0.00     0.013 C 
HETATM   12  C28 UNL     1      -4.440   8.396  14.587  1.00  0.00     0.040 C 
HETATM   13  C29 UNL     1      -3.517   7.197  14.903  1.00  0.00     0.070 C 
HETATM   14  C30 UNL     1      -2.091   7.598  15.347  1.00  0.00     0.026 C 
HETATM   15  C31 UNL     1      -2.043   8.335  16.706  1.00  0.00     0.011 C 
HETATM   16  C32 UNL     1      -0.727   9.105  16.937  1.00  0.00     0.039 C 
HETATM   17  C33 UNL     1       0.462   8.467  16.189  1.00  0.00     0.073 C 
HETATM   18  C34 UNL     1       1.810   9.070  16.618  1.00  0.00     0.071 C 
ENDROOT
BRANCH   1  19
HETATM   19  O2  UNL     1       3.392  10.834  16.500  1.00  0.00    -0.356 OA
BRANCH  19  20
HETATM   20  C3  UNL     1       4.460  10.300  15.716  1.00  0.00     0.263 C 
HETATM   21  O1  UNL     1       4.499   8.880  15.792  1.00  0.00    -0.354 OA
HETATM   22  C2  UNL     1       5.435   8.288  14.875  1.00  0.00     0.151 C 
HETATM   23  C1  UNL     1       4.700   7.895  13.598  1.00  0.00     0.042 C 
HETATM   24  C37 UNL     1       6.688   9.167  14.634  1.00  0.00     0.175 C 
HETATM   25  C36 UNL     1       6.976  10.008  15.886  1.00  0.00     0.154 C 
HETATM   26  C35 UNL     1       5.768  10.859  16.284  1.00  0.00     0.095 C 
BRANCH  24  27
HETATM   27  O8  UNL     1       6.493  10.046  13.520  1.00  0.00    -0.390 OA
HETATM   28  H51 UNL     1       7.357  10.446  13.314  1.00  0.00     0.210 HD
ENDBRANCH  24  27
BRANCH  25  29
HETATM   29  O7  UNL     1       7.370   9.164  16.969  1.00  0.00    -0.393 OA
HETATM   30  H49 UNL     1       6.563   8.749  17.334  1.00  0.00     0.210 HD
ENDBRANCH  25  29
ENDBRANCH  19  20
ENDBRANCH   1  19
BRANCH  17  31
HETATM   31  O6  UNL     1       0.498   7.094  16.632  1.00  0.00    -0.389 OA
HETATM   32  H43 UNL     1       0.738   7.087  17.577  1.00  0.00     0.210 HD
ENDBRANCH  17  31
BRANCH   4  33
HETATM   33  C8  UNL     1       0.941   7.353  13.986  1.00  0.00     0.068 C 
HETATM   34  N1  UNL     1       1.282   7.348  12.742  1.00  0.00    -0.401 N 
ATOM     35  H1  UNL     1       1.101   8.138  12.123  1.00  0.00     0.158 HD
BRANCH  34  36
HETATM   36  C9  UNL     1       1.949   6.124  12.283  1.00  0.00     0.123 C 
BRANCH  36  37
HETATM   37  C10 UNL     1       1.193   5.570  11.075  1.00  0.00     0.058 C 
BRANCH  37  38
HETATM   38  C11 UNL     1       1.358   6.444   9.857  1.00  0.00    -0.057 A 
HETATM   39  C12 UNL     1       0.448   7.475   9.591  1.00  0.00     0.007 A 
HETATM   40  C13 UNL     1       0.597   8.273   8.455  1.00  0.00     0.001 A 
HETATM   41  C14 UNL     1       1.652   8.044   7.574  1.00  0.00     0.000 A 
HETATM   42  C15 UNL     1       2.558   7.015   7.825  1.00  0.00     0.001 A 
HETATM   43  C16 UNL     1       2.412   6.218   8.961  1.00  0.00     0.007 A 
ENDBRANCH  37  38
ENDBRANCH  36  37
ENDBRANCH  34  36
ENDBRANCH   4  33
BRANCH  13  44
HETATM   44  O5  UNL     1      -4.149   6.494  15.980  1.00  0.00    -0.389 OA
HETATM   45  H37 UNL     1      -3.531   5.820  16.314  1.00  0.00     0.210 HD
ENDBRANCH  13  44
BRANCH  10  46
HETATM   46  C23 UNL     1      -6.042   5.836  13.242  1.00  0.00    -0.045 A 
HETATM   47  C24 UNL     1      -6.367   4.601  12.855  1.00  0.00     0.087 A 
HETATM   48  C25 UNL     1      -7.632   4.262  13.500  1.00  0.00     0.283 A 
HETATM   49  O3  UNL     1      -8.225   3.207  13.367  1.00  0.00    -0.260 OA
HETATM   50  O4  UNL     1      -8.033   5.307  14.272  1.00  0.00    -0.314 OA
HETATM   51  C26 UNL     1      -7.069   6.355  14.177  1.00  0.00     0.213 A 
ENDBRANCH  10  46
TORSDOF 11
ENDMDL
