MODEL 1
REMARK minimizedAffinity -6.46014643
REMARK CNNscore 0.396963418
REMARK CNNaffinity 6.01370382
REMARK  9 active torsions:
REMARK  status: ('A' for Active; 'I' for Inactive)
REMARK    1  A    between atoms: C2_2  and  O1_3 
REMARK    2  A    between atoms: O1_3  and  C3_4 
REMARK    3  A    between atoms: C14_15  and  O2_16 
REMARK    4  A    between atoms: O2_16  and  C15_17 
REMARK    5  A    between atoms: C21_24  and  O4_25 
REMARK    6  A    between atoms: O4_25  and  C22_26 
REMARK    7  A    between atoms: C24_29  and  O6_30 
REMARK    8  A    between atoms: C25_31  and  O7_32 
REMARK    9  A    between atoms: C26_33  and  O8_34 
ROOT
HETATM    1  C3  UNL     1      16.404  11.187   2.811  1.00  0.00     0.260 C 
HETATM    2  C4  UNL     1      17.132  12.531   2.978  1.00  0.00     0.065 C 
HETATM    3  C5  UNL     1      16.991  13.058   4.411  1.00  0.00    -0.007 C 
HETATM    4  C6  UNL     1      17.818  14.327   4.604  1.00  0.00     0.010 C 
HETATM    5  C7  UNL     1      15.487  13.292   4.670  1.00  0.00     0.027 C 
HETATM    6  C8  UNL     1      14.605  12.195   3.995  1.00  0.00     0.130 C 
HETATM    7  C9  UNL     1      13.445  11.896   4.977  1.00  0.00     0.042 C 
HETATM    8  C10 UNL     1      13.421  13.110   5.925  1.00  0.00    -0.029 C 
HETATM    9  C11 UNL     1      12.724  14.270   5.125  1.00  0.00     0.016 C 
HETATM   10  C12 UNL     1      12.640  13.002   7.277  1.00  0.00     0.006 C 
HETATM   11  C13 UNL     1      12.208  11.595   7.710  1.00  0.00     0.039 C 
HETATM   12  C14 UNL     1      11.354  11.593   9.011  1.00  0.00     0.138 C 
HETATM   13  C17 UNL     1      11.199  12.987   9.704  1.00  0.00     0.035 C 
HETATM   14  C18 UNL     1      10.466  13.004  11.117  1.00  0.00    -0.015 C 
HETATM   15  C19 UNL     1       9.690  11.705  11.439  1.00  0.00     0.018 C 
HETATM   16  C20 UNL     1       9.384  14.120  11.122  1.00  0.00     0.018 C 
HETATM   17  C21 UNL     1      11.477  13.269  12.280  1.00  0.00     0.133 C 
HETATM   18  C27 UNL     1      12.289  14.565  12.091  1.00  0.00     0.034 C 
HETATM   19  C28 UNL     1      12.516  14.974  10.635  1.00  0.00     0.013 C 
HETATM   20  C29 UNL     1      12.540  13.768   9.737  1.00  0.00    -0.025 A 
HETATM   21  C30 UNL     1      13.856  13.043   9.668  1.00  0.00     0.021 A 
HETATM   22  C31 UNL     1      13.347  13.756   8.425  1.00  0.00    -0.027 A 
HETATM   23  C32 UNL     1      14.147  14.970   7.982  1.00  0.00     0.011 C 
HETATM   24  C33 UNL     1      15.185  14.668   6.881  1.00  0.00     0.011 C 
HETATM   25  C34 UNL     1      14.959  13.338   6.140  1.00  0.00    -0.030 C 
HETATM   26  C35 UNL     1      15.655  12.200   6.940  1.00  0.00     0.016 C 
HETATM   27  O9  UNL     1      15.347  11.007   3.757  1.00  0.00    -0.356 OA
ENDROOT
BRANCH  17  28
HETATM   28  O4  UNL     1      12.330  12.118  12.403  1.00  0.00    -0.353 OA
BRANCH  28  29
HETATM   29  C22 UNL     1      12.083  11.294  13.555  1.00  0.00     0.291 C 
HETATM   30  O5  UNL     1      11.791  12.044  14.730  1.00  0.00    -0.356 OA
HETATM   31  C23 UNL     1      12.914  12.793  15.207  1.00  0.00     0.205 C 
HETATM   32  C24 UNL     1      14.108  11.898  15.559  1.00  0.00     0.173 C 
HETATM   33  C25 UNL     1      14.514  11.067  14.343  1.00  0.00     0.182 C 
HETATM   34  C26 UNL     1      13.289  10.340  13.769  1.00  0.00     0.204 C 
BRANCH  32  35
HETATM   35  O6  UNL     1      13.771  11.024  16.641  1.00  0.00    -0.391 OA
HETATM   36  H39 UNL     1      13.418  11.572  17.362  1.00  0.00     0.210 HD
ENDBRANCH  32  35
BRANCH  33  37
HETATM   37  O7  UNL     1      15.126  11.914  13.363  1.00  0.00    -0.390 OA
HETATM   38  H41 UNL     1      15.234  11.360  12.566  1.00  0.00     0.210 HD
ENDBRANCH  33  37
BRANCH  34  39
HETATM   39  O8  UNL     1      13.666   9.677  12.551  1.00  0.00    -0.388 OA
HETATM   40  H43 UNL     1      13.265  10.202  11.830  1.00  0.00     0.210 HD
ENDBRANCH  34  39
ENDBRANCH  28  29
ENDBRANCH  17  28
BRANCH  12  41
HETATM   41  O2  UNL     1      10.031  11.125   8.635  1.00  0.00    -0.316 OA
BRANCH  41  42
HETATM   42  C15 UNL     1       9.952  10.410   7.478  1.00  0.00     0.255 C 
HETATM   43  C16 UNL     1       9.498  11.296   6.356  1.00  0.00     0.126 C 
HETATM   44  O3  UNL     1      10.210   9.220   7.351  1.00  0.00    -0.266 OA
ENDBRANCH  41  42
ENDBRANCH  12  41
BRANCH   1  45
HETATM   45  O1  UNL     1      15.928  11.099   1.468  1.00  0.00    -0.362 OA
BRANCH  45  46
HETATM   46  C2  UNL     1      15.985  12.343   0.772  1.00  0.00     0.166 C 
HETATM   47  C1  UNL     1      15.051  12.330  -0.426  1.00  0.00     0.033 C 
ENDBRANCH  45  46
ENDBRANCH   1  45
TORSDOF 9
ENDMDL
