MODEL 1
REMARK minimizedAffinity -9.05565739
REMARK CNNscore 0.751296759
REMARK CNNaffinity 6.79814577
REMARK  12 active torsions:
REMARK  status: ('A' for Active; 'I' for Inactive)
REMARK    1  A    between atoms: C19_21  and  O3_22 
REMARK    2  A    between atoms: C19_21  and  C20_23 
REMARK    3  A    between atoms: C20_23  and  C21_25 
REMARK    4  A    between atoms: C21_25  and  O5_26 
REMARK    5  A    between atoms: O5_26  and  C22_27 
REMARK    6  A    between atoms: C22_27  and  C23_29 
REMARK    7  A    between atoms: C23_29  and  C24_30 
REMARK    8  A    between atoms: C24_30  and  C25_31 
REMARK       I    between atoms: C25_31  and  N1_33 
REMARK    9  A    between atoms: N1_33  and  C26_34 
REMARK   10  A    between atoms: C26_34  and  C27_35 
REMARK   11  A    between atoms: C30_38  and  C31_39 
REMARK   12  A    between atoms: C31_39  and  O9_41 
ROOT
HETATM    1  C1  UNL     1      -0.544  50.383 -25.666  1.00  0.00     0.021 C 
HETATM    2  C2  UNL     1      -1.233  51.693 -25.225  1.00  0.00    -0.009 C 
HETATM    3  C3  UNL     1      -2.544  51.900 -26.044  1.00  0.00     0.022 C 
HETATM    4  C4  UNL     1      -2.317  52.324 -27.488  1.00  0.00     0.084 C 
HETATM    5  C5  UNL     1      -1.461  53.561 -27.548  1.00  0.00     0.149 C 
HETATM    6  O1  UNL     1      -1.572  54.400 -28.437  1.00  0.00    -0.293 OA
HETATM    7  C6  UNL     1      -0.391  53.712 -26.536  1.00  0.00     0.053 C 
HETATM    8  C7  UNL     1      -0.255  52.850 -25.512  1.00  0.00    -0.067 C 
HETATM    9  C8  UNL     1       0.931  52.986 -24.585  1.00  0.00     0.035 C 
HETATM   10  C9  UNL     1       0.517  52.983 -23.118  1.00  0.00     0.010 C 
HETATM   11  C10 UNL     1      -0.329  51.748 -22.776  1.00  0.00     0.003 C 
HETATM   12  C11 UNL     1      -1.587  51.702 -23.693  1.00  0.00     0.072 C 
HETATM   13  C12 UNL     1      -2.542  50.586 -23.220  1.00  0.00     0.133 C 
HETATM   14  O2  UNL     1      -3.043  49.757 -23.975  1.00  0.00    -0.297 OA
HETATM   15  C13 UNL     1      -2.914  50.592 -21.742  1.00  0.00     0.091 C 
HETATM   16  C14 UNL     1      -1.639  50.558 -20.890  1.00  0.00     0.005 C 
HETATM   17  C15 UNL     1      -0.911  49.201 -21.113  1.00  0.00     0.019 C 
HETATM   18  C16 UNL     1      -0.775  51.779 -21.306  1.00  0.00     0.002 C 
HETATM   19  C17 UNL     1       0.306  51.835 -20.231  1.00  0.00     0.009 C 
HETATM   20  C18 UNL     1      -0.386  51.320 -18.954  1.00  0.00     0.047 C 
HETATM   21  C19 UNL     1      -1.807  50.863 -19.367  1.00  0.00     0.128 C 
ENDROOT
BRANCH  21  22
HETATM   22  O3  UNL     1      -2.686  51.982 -19.166  1.00  0.00    -0.381 OA
HETATM   23  H25 UNL     1      -3.589  51.699 -19.408  1.00  0.00     0.211 HD
ENDBRANCH  21  22
BRANCH  21  24
HETATM   24  C20 UNL     1      -2.372  49.727 -18.496  1.00  0.00     0.185 C 
HETATM   25  O4  UNL     1      -2.318  48.549 -18.870  1.00  0.00    -0.292 OA
BRANCH  24  26
HETATM   26  C21 UNL     1      -3.158  50.122 -17.242  1.00  0.00     0.260 C 
BRANCH  26  27
HETATM   27  O5  UNL     1      -2.443  51.032 -16.406  1.00  0.00    -0.314 OA
BRANCH  27  28
HETATM   28  C22 UNL     1      -1.706  50.410 -15.445  1.00  0.00     0.259 C 
HETATM   29  O6  UNL     1      -1.047  49.392 -15.632  1.00  0.00    -0.265 OA
BRANCH  28  30
HETATM   30  C23 UNL     1      -1.856  51.064 -14.094  1.00  0.00     0.120 C 
BRANCH  30  31
HETATM   31  C24 UNL     1      -3.174  51.795 -13.869  1.00  0.00     0.112 C 
BRANCH  31  32
HETATM   32  C25 UNL     1      -3.435  52.084 -12.402  1.00  0.00     0.218 C 
HETATM   33  O7  UNL     1      -3.620  51.207 -11.567  1.00  0.00    -0.274 OA
HETATM   34  N1  UNL     1      -3.401  53.428 -12.105  1.00  0.00    -0.357 N 
HETATM   35  H32 UNL     1      -3.450  54.093 -12.864  1.00  0.00     0.162 HD
BRANCH  34  36
HETATM   36  C26 UNL     1      -3.695  53.917 -10.776  1.00  0.00     0.161 C 
BRANCH  36  37
HETATM   37  C27 UNL     1      -2.436  54.092  -9.963  1.00  0.00    -0.040 A 
HETATM   38  C28 UNL     1      -1.609  55.210 -10.148  1.00  0.00     0.010 A 
HETATM   39  C29 UNL     1      -0.445  55.365  -9.389  1.00  0.00     0.019 A 
HETATM   40  C30 UNL     1      -0.099  54.406  -8.427  1.00  0.00     0.037 A 
HETATM   41  C32 UNL     1      -0.932  53.300  -8.225  1.00  0.00     0.019 A 
HETATM   42  C33 UNL     1      -2.093  53.143  -8.988  1.00  0.00     0.010 A 
BRANCH  40  43
HETATM   43  C31 UNL     1       1.127  54.522  -7.601  1.00  0.00     0.176 C 
HETATM   44  O8  UNL     1       2.179  55.029  -7.946  1.00  0.00    -0.646 OA
BRANCH  43  45
HETATM   45  O9  UNL     1       0.973  54.003  -6.371  1.00  0.00    -0.773 OA
HETATM   46  H37 UNL     1       1.843  54.159  -5.944  1.00  0.00     0.167 HD
ENDBRANCH  43  45
ENDBRANCH  40  43
ENDBRANCH  36  37
ENDBRANCH  34  36
ENDBRANCH  31  32
ENDBRANCH  30  31
ENDBRANCH  28  30
ENDBRANCH  27  28
ENDBRANCH  26  27
ENDBRANCH  24  26
ENDBRANCH  21  24
TORSDOF 12
ENDMDL
