MODEL 1
REMARK minimizedAffinity -8.75393867
REMARK  11 active torsions:
REMARK  status: ('A' for Active; 'I' for Inactive)
REMARK    1  A    between atoms: C2_2  and  O1_3 
REMARK    2  A    between atoms: C2_2  and  C3_4 
REMARK    3  A    between atoms: C4_5  and  C5_6 
REMARK    4  A    between atoms: C5_6  and  O2_7 
REMARK    5  A    between atoms: C9_11  and  O3_12 
REMARK    6  A    between atoms: O3_12  and  C10_13 
REMARK    7  A    between atoms: C11_15  and  C12_16 
REMARK    8  A    between atoms: C12_16  and  O5_17 
REMARK    9  A    between atoms: C13_18  and  O6_19 
REMARK   10  A    between atoms: C14_20  and  O7_21 
REMARK   11  A    between atoms: C15_22  and  O8_23 
ROOT
HETATM    1  C5  UNL     1      -3.418  49.619 -23.478  1.00  0.00     0.086 C 
HETATM    2  C6  UNL     1      -3.380  48.712 -24.750  1.00  0.00     0.023 C 
HETATM    3  C7  UNL     1      -4.677  48.661 -25.569  1.00  0.00     0.013 C 
HETATM    4  C8  UNL     1      -2.195  49.089 -25.673  1.00  0.00     0.039 C 
HETATM    5  C9  UNL     1      -1.728  50.546 -25.547  1.00  0.00     0.126 C 
HETATM    6  C16 UNL     1      -2.894  51.474 -25.220  1.00  0.00     0.044 C 
HETATM    7  C17 UNL     1      -3.566  51.158 -23.850  1.00  0.00    -0.010 C 
HETATM    8  C18 UNL     1      -2.887  52.058 -22.782  1.00  0.00     0.018 C 
HETATM    9  C19 UNL     1      -5.041  51.613 -23.931  1.00  0.00     0.018 C 
ENDROOT
BRANCH   5  10
HETATM   10  O3  UNL     1      -1.177  50.935 -26.813  1.00  0.00    -0.353 OA
BRANCH  10  11
HETATM   11  C10 UNL     1       0.256  50.987 -26.794  1.00  0.00     0.292 C 
HETATM   12  O4  UNL     1       0.705  51.523 -25.544  1.00  0.00    -0.348 OA
HETATM   13  C11 UNL     1       0.922  52.948 -25.521  1.00  0.00     0.179 C 
HETATM   14  C13 UNL     1      -0.029  53.693 -26.459  1.00  0.00     0.180 C 
HETATM   15  C14 UNL     1       0.239  53.258 -27.913  1.00  0.00     0.183 C 
HETATM   16  C15 UNL     1       0.709  51.798 -28.026  1.00  0.00     0.204 C 
BRANCH  13  17
HETATM   17  C12 UNL     1       0.764  53.403 -24.063  1.00  0.00     0.198 C 
BRANCH  17  18
HETATM   18  O5  UNL     1       1.384  54.680 -23.881  1.00  0.00    -0.398 OA
HETATM   19  H20 UNL     1       2.244  54.616 -24.344  1.00  0.00     0.209 HD
ENDBRANCH  17  18
ENDBRANCH  13  17
BRANCH  14  20
HETATM   20  O6  UNL     1       0.111  55.112 -26.357  1.00  0.00    -0.390 OA
HETATM   21  H22 UNL     1      -0.449  55.496 -27.058  1.00  0.00     0.210 HD
ENDBRANCH  14  20
BRANCH  15  22
HETATM   22  O7  UNL     1      -0.960  53.469 -28.680  1.00  0.00    -0.390 OA
HETATM   23  H24 UNL     1      -1.628  52.845 -28.335  1.00  0.00     0.210 HD
ENDBRANCH  15  22
BRANCH  16  24
HETATM   24  O8  UNL     1       2.137  51.747 -28.151  1.00  0.00    -0.388 OA
HETATM   25  H26 UNL     1       2.369  52.148 -29.008  1.00  0.00     0.210 HD
ENDBRANCH  16  24
ENDBRANCH  10  11
ENDBRANCH   5  10
BRANCH   1  26
HETATM   26  C4  UNL     1      -4.358  49.184 -22.364  1.00  0.00     0.010 C 
HETATM   27  C3  UNL     1      -5.221  49.933 -21.656  1.00  0.00     0.003 C 
BRANCH  27  28
HETATM   28  C2  UNL     1      -6.130  49.391 -20.594  1.00  0.00     0.136 C 
HETATM   29  C1  UNL     1      -5.350  48.901 -19.384  1.00  0.00     0.043 C 
BRANCH  28  30
HETATM   30  O1  UNL     1      -6.981  50.454 -20.184  1.00  0.00    -0.392 OA
HETATM   31  H5  UNL     1      -7.493  50.717 -20.968  1.00  0.00     0.210 HD
ENDBRANCH  28  30
ENDBRANCH  27  28
ENDBRANCH   1  26
BRANCH   1  32
HETATM   32  O2  UNL     1      -2.118  49.445 -22.872  1.00  0.00    -0.385 OA
HETATM   33  H8  UNL     1      -2.066  48.525 -22.557  1.00  0.00     0.211 HD
ENDBRANCH   1  32
TORSDOF 11
ENDMDL
