MODEL 1
REMARK minimizedAffinity -7.5187521
REMARK CNNscore 0.911960185
REMARK CNNaffinity 6.61392212
REMARK  9 active torsions:
REMARK  status: ('A' for Active; 'I' for Inactive)
REMARK    1  A    between atoms: C2_2  and  C30_35 
REMARK    2  A    between atoms: C3_3  and  C4_4 
REMARK    3  A    between atoms: C4_4  and  O1_5 
REMARK    4  A    between atoms: C4_4  and  C5_6 
REMARK    5  A    between atoms: C5_6  and  C6_7 
REMARK    6  A    between atoms: C6_7  and  C8_9 
REMARK    7  A    between atoms: C10_11  and  O2_12 
REMARK    8  A    between atoms: C29_33  and  O5_34 
REMARK    9  A    between atoms: C30_35  and  O7_37 
ROOT
HETATM    1  C8  UNL     1       3.955  56.444  -7.620  1.00  0.00     0.001 C 
HETATM    2  C9  UNL     1       4.973  55.429  -8.211  1.00  0.00     0.038 C 
HETATM    3  C10 UNL     1       4.146  54.287  -8.836  1.00  0.00     0.132 C 
HETATM    4  C11 UNL     1       2.740  54.911  -9.063  1.00  0.00     0.017 C 
HETATM    5  C12 UNL     1       2.809  55.793 -10.355  1.00  0.00     0.023 C 
HETATM    6  C13 UNL     1       1.503  54.030  -9.275  1.00  0.00    -0.029 C 
HETATM    7  C14 UNL     1       0.253  54.522  -9.046  1.00  0.00     0.002 C 
HETATM    8  C15 UNL     1       0.125  55.868  -8.344  1.00  0.00     0.157 C 
HETATM    9  O3  UNL     1      -0.976  56.382  -8.148  1.00  0.00    -0.293 OA
HETATM   10  C16 UNL     1       1.360  56.617  -7.861  1.00  0.00     0.094 C 
HETATM   11  C17 UNL     1       2.580  55.708  -7.720  1.00  0.00    -0.019 C 
HETATM   12  C18 UNL     1       2.351  54.786  -6.488  1.00  0.00     0.017 C 
HETATM   13  C19 UNL     1      -1.040  53.745  -9.435  1.00  0.00    -0.008 C 
HETATM   14  C20 UNL     1      -1.543  53.110  -8.120  1.00  0.00     0.021 C 
HETATM   15  C21 UNL     1      -2.150  54.655 -10.036  1.00  0.00     0.022 C 
HETATM   16  C22 UNL     1      -3.360  53.901 -10.569  1.00  0.00     0.080 C 
HETATM   17  C23 UNL     1      -2.965  52.885 -11.606  1.00  0.00     0.135 C 
HETATM   18  O4  UNL     1      -3.594  52.808 -12.663  1.00  0.00    -0.297 OA
HETATM   19  C24 UNL     1      -1.842  51.907 -11.241  1.00  0.00     0.018 C 
HETATM   20  C25 UNL     1      -2.439  50.778 -10.389  1.00  0.00     0.023 C 
HETATM   21  C26 UNL     1      -1.341  51.261 -12.560  1.00  0.00     0.023 C 
HETATM   22  C27 UNL     1      -0.671  52.709 -10.575  1.00  0.00     0.016 C 
HETATM   23  C28 UNL     1       0.490  51.823 -10.116  1.00  0.00     0.043 C 
HETATM   24  C29 UNL     1       1.745  52.653  -9.843  1.00  0.00     0.149 C 
ENDROOT
BRANCH   1  25
HETATM   25  C6  UNL     1       4.448  57.139  -6.313  1.00  0.00    -0.011 C 
HETATM   26  C7  UNL     1       3.594  58.307  -5.803  1.00  0.00     0.010 C 
BRANCH  25  27
HETATM   27  C5  UNL     1       5.946  57.524  -6.412  1.00  0.00     0.040 C 
BRANCH  27  28
HETATM   28  C4  UNL     1       6.845  56.871  -5.349  1.00  0.00     0.142 C 
BRANCH  28  29
HETATM   29  C3  UNL     1       8.126  57.643  -5.176  1.00  0.00     0.018 C 
HETATM   30  C2  UNL     1       9.389  57.182  -5.040  1.00  0.00     0.010 C 
HETATM   31  C1  UNL     1       9.784  55.735  -4.962  1.00  0.00     0.055 C 
BRANCH  30  32
HETATM   32  C30 UNL     1      10.528  58.131  -4.930  1.00  0.00     0.171 C 
HETATM   33  O6  UNL     1      10.499  59.310  -5.239  1.00  0.00    -0.646 OA
BRANCH  32  34
HETATM   34  O7  UNL     1      11.655  57.575  -4.454  1.00  0.00    -0.773 OA
HETATM   35  H44 UNL     1      12.294  58.316  -4.462  1.00  0.00     0.167 HD
ENDBRANCH  32  34
ENDBRANCH  30  32
ENDBRANCH  28  29
BRANCH  28  36
HETATM   36  O1  UNL     1       6.164  56.759  -4.111  1.00  0.00    -0.392 OA
HETATM   37  H6  UNL     1       6.789  56.371  -3.476  1.00  0.00     0.210 HD
ENDBRANCH  28  36
ENDBRANCH  27  28
ENDBRANCH  25  27
ENDBRANCH   1  25
BRANCH   3  38
HETATM   38  O2  UNL     1       4.757  53.825 -10.034  1.00  0.00    -0.394 OA
HETATM   39  H17 UNL     1       5.664  53.554  -9.805  1.00  0.00     0.210 HD
ENDBRANCH   3  38
BRANCH  24  40
HETATM   40  O5  UNL     1       2.519  51.905  -8.911  1.00  0.00    -0.391 OA
HETATM   41  H43 UNL     1       3.000  51.236  -9.427  1.00  0.00     0.210 HD
ENDBRANCH  24  40
TORSDOF 9
ENDMDL
