MODEL 1
REMARK minimizedAffinity -9.96394634
REMARK  7 active torsions:
REMARK  status: ('A' for Active; 'I' for Inactive)
REMARK    1  A    between atoms: C2_2  and  C30_33 
REMARK    2  A    between atoms: C3_3  and  C4_4 
REMARK    3  A    between atoms: C4_4  and  C5_5 
REMARK    4  A    between atoms: C5_5  and  C6_6 
REMARK    5  A    between atoms: C6_6  and  C8_8 
REMARK    6  A    between atoms: C19_20  and  O2_21 
REMARK    7  A    between atoms: C30_33  and  O5_35 
ROOT
HETATM    1  C8  UNL     1      -5.084   7.466  15.496  1.00  0.00    -0.002 C 
HETATM    2  C9  UNL     1      -5.423   8.940  15.142  1.00  0.00     0.007 C 
HETATM    3  C10 UNL     1      -4.099   9.590  14.663  1.00  0.00     0.018 C 
HETATM    4  C11 UNL     1      -3.011   8.560  15.016  1.00  0.00     0.025 C 
HETATM    5  C12 UNL     1      -2.626   8.836  16.496  1.00  0.00     0.024 C 
HETATM    6  C13 UNL     1      -1.720   8.597  14.187  1.00  0.00     0.147 C 
HETATM    7  O1  UNL     1      -1.433   9.610  13.548  1.00  0.00    -0.296 OA
HETATM    8  C14 UNL     1      -0.742   7.360  14.284  1.00  0.00     0.055 C 
HETATM    9  C15 UNL     1      -1.554   6.029  14.426  1.00  0.00     0.021 C 
HETATM   10  C16 UNL     1      -2.884   6.066  15.202  1.00  0.00     0.012 C 
HETATM   11  C17 UNL     1      -3.760   7.227  14.719  1.00  0.00    -0.026 C 
HETATM   12  C18 UNL     1      -4.058   7.025  13.202  1.00  0.00     0.016 C 
HETATM   13  C19 UNL     1       0.218   7.677  15.491  1.00  0.00     0.135 C 
HETATM   14  C20 UNL     1       1.620   7.990  14.936  1.00  0.00     0.039 C 
HETATM   15  C21 UNL     1       1.368   8.325  13.471  1.00  0.00     0.012 C 
HETATM   16  C22 UNL     1       2.593   8.471  12.530  1.00  0.00     0.018 C 
HETATM   17  C23 UNL     1       3.098   9.929  12.569  1.00  0.00     0.023 C 
HETATM   18  C24 UNL     1       3.786   7.570  12.889  1.00  0.00     0.023 C 
HETATM   19  C25 UNL     1       2.120   8.198  11.093  1.00  0.00     0.135 C 
HETATM   20  O3  UNL     1       2.890   7.830  10.205  1.00  0.00    -0.297 OA
HETATM   21  C26 UNL     1       0.657   8.464  10.795  1.00  0.00     0.080 C 
HETATM   22  C27 UNL     1      -0.276   7.604  11.650  1.00  0.00     0.018 C 
HETATM   23  C28 UNL     1       0.294   7.275  13.057  1.00  0.00    -0.022 C 
HETATM   24  C29 UNL     1       0.910   5.845  12.947  1.00  0.00     0.017 C 
ENDROOT
BRANCH  13  25
HETATM   25  O2  UNL     1       0.280   6.645  16.464  1.00  0.00    -0.394 OA
HETATM   26  H29 UNL     1       0.819   5.916  16.115  1.00  0.00     0.210 HD
ENDBRANCH  13  25
BRANCH   1  27
HETATM   27  C6  UNL     1      -6.245   6.433  15.388  1.00  0.00    -0.014 C 
HETATM   28  C7  UNL     1      -7.323   6.801  16.427  1.00  0.00     0.010 C 
BRANCH  27  29
HETATM   29  C5  UNL     1      -6.897   6.283  13.995  1.00  0.00     0.008 C 
BRANCH  29  30
HETATM   30  C4  UNL     1      -7.146   4.823  13.589  1.00  0.00     0.028 C 
BRANCH  30  31
HETATM   31  C3  UNL     1      -6.008   4.282  12.762  1.00  0.00    -0.013 C 
HETATM   32  C2  UNL     1      -5.901   3.071  12.176  1.00  0.00     0.008 C 
HETATM   33  C1  UNL     1      -4.673   2.687  11.401  1.00  0.00     0.055 C 
BRANCH  32  34
HETATM   34  C30 UNL     1      -7.005   2.081  12.214  1.00  0.00     0.171 C 
HETATM   35  O4  UNL     1      -8.045   2.153  12.844  1.00  0.00    -0.646 OA
BRANCH  34  36
HETATM   36  O5  UNL     1      -6.755   1.026  11.420  1.00  0.00    -0.773 OA
HETATM   37  H46 UNL     1      -7.555   0.473  11.527  1.00  0.00     0.167 HD
ENDBRANCH  34  36
ENDBRANCH  32  34
ENDBRANCH  30  31
ENDBRANCH  29  30
ENDBRANCH  27  29
ENDBRANCH   1  27
TORSDOF 7
ENDMDL
