MODEL 1
REMARK minimizedAffinity -8.45439625
REMARK CNNscore 0.514991105
REMARK CNNaffinity 6.46523142
REMARK  10 active torsions:
REMARK  status: ('A' for Active; 'I' for Inactive)
REMARK    1  A    between atoms: C3_3  and  O1_4 
REMARK    2  A    between atoms: N1_14  and  O2_16 
REMARK    3  A    between atoms: O2_16  and  C13_17 
REMARK    4  A    between atoms: C13_17  and  C14_18 
REMARK       I    between atoms: C14_18  and  N2_20 
REMARK    5  A    between atoms: N2_20  and  C15_21 
REMARK    6  A    between atoms: C15_21  and  C16_22 
REMARK    7  A    between atoms: C15_21  and  C19_29 
REMARK       I    between atoms: C16_22  and  N3_24 
REMARK    8  A    between atoms: N3_24  and  C17_25 
REMARK    9  A    between atoms: C17_25  and  C18_26 
REMARK   10  A    between atoms: C18_26  and  O6_28 
ROOT
HETATM    1  C1  UNL     1       0.964  51.911 -26.693  1.00  0.00     0.015 C 
HETATM    2  C2  UNL     1      -0.236  51.911 -26.650  1.00  0.00    -0.078 C 
HETATM    3  C3  UNL     1      -1.717  51.893 -26.609  1.00  0.00     0.128 C 
HETATM    4  C4  UNL     1      -2.237  50.591 -27.241  1.00  0.00     0.052 C 
HETATM    5  C5  UNL     1      -2.466  49.610 -26.080  1.00  0.00     0.010 C 
HETATM    6  C6  UNL     1      -2.124  50.372 -24.785  1.00  0.00     0.002 C 
HETATM    7  C7  UNL     1      -2.900  49.938 -23.523  1.00  0.00    -0.004 C 
HETATM    8  C8  UNL     1      -2.760  48.429 -23.278  1.00  0.00     0.010 C 
HETATM    9  C9  UNL     1      -3.400  48.026 -21.957  1.00  0.00     0.035 C 
HETATM   10  C10 UNL     1      -4.844  48.457 -21.865  1.00  0.00    -0.069 C 
HETATM   11  C11 UNL     1      -5.764  47.584 -21.413  1.00  0.00     0.030 C 
HETATM   12  C12 UNL     1      -7.158  47.996 -21.114  1.00  0.00     0.032 C 
HETATM   13  N1  UNL     1      -7.936  47.124 -20.535  1.00  0.00    -0.271 N 
ATOM     14  H1  UNL     1      -7.665  46.163 -20.328  1.00  0.00     0.194 HD
HETATM   15  C22 UNL     1      -7.566  49.423 -21.415  1.00  0.00     0.060 C 
HETATM   16  C23 UNL     1      -6.689  50.047 -22.493  1.00  0.00     0.020 C 
HETATM   17  C24 UNL     1      -5.163  49.911 -22.226  1.00  0.00    -0.016 C 
HETATM   18  C25 UNL     1      -4.778  50.792 -21.014  1.00  0.00     0.020 C 
HETATM   19  C26 UNL     1      -4.396  50.340 -23.542  1.00  0.00     0.002 C 
HETATM   20  C27 UNL     1      -4.543  51.840 -23.872  1.00  0.00     0.007 C 
HETATM   21  C28 UNL     1      -3.816  52.233 -25.158  1.00  0.00     0.014 C 
HETATM   22  C29 UNL     1      -2.307  51.858 -25.163  1.00  0.00     0.003 C 
HETATM   23  C30 UNL     1      -1.560  52.797 -24.193  1.00  0.00     0.020 C 
ENDROOT
BRANCH   3  24
HETATM   24  O1  UNL     1      -2.209  53.014 -27.333  1.00  0.00    -0.377 OA
HETATM   25  H2  UNL     1      -1.574  53.200 -28.044  1.00  0.00     0.211 HD
ENDBRANCH   3  24
BRANCH  13  26
HETATM   26  O2  UNL     1      -9.191  47.673 -20.231  1.00  0.00    -0.271 OA
BRANCH  26  27
HETATM   27  C13 UNL     1     -10.174  46.647 -20.332  1.00  0.00     0.303 C 
BRANCH  27  28
HETATM   28  C14 UNL     1     -11.528  47.196 -19.906  1.00  0.00     0.244 C 
HETATM   29  O3  UNL     1     -11.699  48.370 -19.588  1.00  0.00    -0.271 OA
HETATM   30  N2  UNL     1     -12.530  46.247 -19.835  1.00  0.00    -0.346 N 
HETATM   31  H16 UNL     1     -12.341  45.368 -20.310  1.00  0.00     0.163 HD
BRANCH  30  32
HETATM   32  C15 UNL     1     -13.931  46.633 -19.600  1.00  0.00     0.180 C 
BRANCH  32  33
HETATM   33  C16 UNL     1     -14.597  47.169 -20.896  1.00  0.00     0.241 C 
HETATM   34  O4  UNL     1     -14.298  48.247 -21.401  1.00  0.00    -0.271 OA
HETATM   35  N3  UNL     1     -15.450  46.282 -21.511  1.00  0.00    -0.349 N 
HETATM   36  H18 UNL     1     -15.797  45.508 -20.951  1.00  0.00     0.163 HD
BRANCH  35  37
HETATM   37  C17 UNL     1     -16.243  46.672 -22.661  1.00  0.00     0.232 C 
BRANCH  37  38
HETATM   38  C18 UNL     1     -15.511  46.408 -23.968  1.00  0.00     0.158 C 
HETATM   39  O5  UNL     1     -15.570  45.385 -24.632  1.00  0.00    -0.649 OA
BRANCH  38  40
HETATM   40  O6  UNL     1     -14.719  47.431 -24.370  1.00  0.00    -0.775 OA
HETATM   41  H21 UNL     1     -14.319  47.092 -25.199  1.00  0.00     0.167 HD
ENDBRANCH  38  40
ENDBRANCH  37  38
ENDBRANCH  35  37
ENDBRANCH  32  33
BRANCH  32  42
HETATM   42  C19 UNL     1     -14.015  47.653 -18.438  1.00  0.00     0.009 C 
HETATM   43  C20 UNL     1     -15.334  48.431 -18.402  1.00  0.00     0.012 C 
HETATM   44  C21 UNL     1     -13.757  46.996 -17.079  1.00  0.00     0.012 C 
ENDBRANCH  32  42
ENDBRANCH  30  32
ENDBRANCH  27  28
ENDBRANCH  26  27
ENDBRANCH  13  26
TORSDOF 10
ENDMDL
