MODEL 1
REMARK minimizedAffinity -8.49757099
REMARK  9 active torsions:
REMARK  status: ('A' for Active; 'I' for Inactive)
REMARK    1  A    between atoms: C2_2  and  C3_3 
REMARK    2  A    between atoms: C3_3  and  C5_5 
REMARK    3  A    between atoms: C5_5  and  C6_6 
REMARK    4  A    between atoms: C6_6  and  O2_8 
REMARK    5  A    between atoms: O2_8  and  C7_9 
REMARK    6  A    between atoms: C7_9  and  C8_10 
REMARK    7  A    between atoms: C20_22  and  O3_23 
REMARK    8  A    between atoms: C20_22  and  C21_24 
REMARK    9  A    between atoms: C21_24  and  O4_25 
ROOT
HETATM    1  C8  UNL     1      -1.857  51.126 -25.900  1.00  0.00    -0.018 C 
HETATM    2  C9  UNL     1      -0.390  50.616 -26.008  1.00  0.00     0.018 C 
HETATM    3  C10 UNL     1      -2.658  50.450 -27.040  1.00  0.00     0.012 C 
HETATM    4  C11 UNL     1      -2.987  48.974 -26.834  1.00  0.00     0.002 C 
HETATM    5  C12 UNL     1      -3.065  48.519 -25.379  1.00  0.00     0.010 C 
HETATM    6  C13 UNL     1      -3.473  49.618 -24.374  1.00  0.00    -0.032 C 
HETATM    7  C14 UNL     1      -4.873  50.172 -24.787  1.00  0.00     0.016 C 
HETATM    8  C15 UNL     1      -2.400  50.762 -24.450  1.00  0.00     0.005 C 
HETATM    9  C16 UNL     1      -2.842  51.960 -23.567  1.00  0.00     0.007 C 
HETATM   10  C17 UNL     1      -3.421  51.544 -22.203  1.00  0.00     0.006 C 
HETATM   11  C18 UNL     1      -2.992  50.127 -21.837  1.00  0.00    -0.002 C 
HETATM   12  C19 UNL     1      -3.291  49.766 -20.375  1.00  0.00     0.045 C 
HETATM   13  C20 UNL     1      -2.812  48.334 -20.060  1.00  0.00     0.083 C 
HETATM   14  C22 UNL     1      -3.218  47.350 -21.192  1.00  0.00     0.023 C 
HETATM   15  C23 UNL     1      -4.728  47.378 -21.459  1.00  0.00     0.008 C 
HETATM   16  C24 UNL     1      -4.937  48.507 -22.478  1.00  0.00     0.011 C 
HETATM   17  C25 UNL     1      -3.525  49.048 -22.866  1.00  0.00    -0.029 C 
HETATM   18  C26 UNL     1      -2.678  47.782 -22.569  1.00  0.00     0.018 C 
ENDROOT
BRANCH   1  19
HETATM   19  C7  UNL     1      -1.825  52.660 -26.165  1.00  0.00     0.188 C 
BRANCH  19  20
HETATM   20  O2  UNL     1      -1.268  53.352 -25.034  1.00  0.00    -0.321 OA
BRANCH  20  21
HETATM   21  C6  UNL     1      -0.052  53.918 -25.256  1.00  0.00     0.259 C 
HETATM   22  O1  UNL     1       0.193  54.742 -26.128  1.00  0.00    -0.265 OA
BRANCH  21  23
HETATM   23  C5  UNL     1       0.985  53.358 -24.313  1.00  0.00     0.115 C 
BRANCH  23  24
HETATM   24  C3  UNL     1       0.520  53.281 -22.849  1.00  0.00    -0.010 C 
HETATM   25  C4  UNL     1       0.517  51.822 -22.384  1.00  0.00     0.010 C 
BRANCH  24  26
HETATM   26  C2  UNL     1       1.330  54.179 -21.890  1.00  0.00     0.000 C 
HETATM   27  C1  UNL     1       0.996  54.026 -20.413  1.00  0.00     0.005 C 
ENDBRANCH  24  26
ENDBRANCH  23  24
ENDBRANCH  21  23
ENDBRANCH  20  21
ENDBRANCH  19  20
ENDBRANCH   1  19
BRANCH  13  28
HETATM   28  O3  UNL     1      -3.404  47.894 -18.823  1.00  0.00    -0.387 OA
HETATM   29  H34 UNL     1      -4.353  48.105 -18.841  1.00  0.00     0.210 HD
ENDBRANCH  13  28
BRANCH  13  30
HETATM   30  C21 UNL     1      -1.286  48.309 -19.793  1.00  0.00     0.202 C 
BRANCH  30  31
HETATM   31  O4  UNL     1      -0.620  47.589 -20.831  1.00  0.00    -0.398 OA
HETATM   32  H37 UNL     1      -1.168  46.788 -20.959  1.00  0.00     0.209 HD
ENDBRANCH  30  31
ENDBRANCH  13  30
TORSDOF 9
ENDMDL
