MODEL 1
REMARK minimizedAffinity -8.49687958
REMARK  11 active torsions:
REMARK  status: ('A' for Active; 'I' for Inactive)
REMARK    1  A    between atoms: C2_2  and  C3_3 
REMARK    2  A    between atoms: C2_2  and  C4_5 
REMARK    3  A    between atoms: C3_3  and  O1_4 
REMARK    4  A    between atoms: C13_14  and  C14_15 
REMARK    5  A    between atoms: C14_15  and  C16_17 
REMARK    6  A    between atoms: C16_17  and  C17_18 
REMARK    7  A    between atoms: C17_18  and  C18_19 
REMARK    8  A    between atoms: C27_28  and  C28_29 
REMARK    9  A    between atoms: C28_29  and  C29_30 
REMARK   10  A    between atoms: C29_30  and  C30_31 
REMARK   11  A    between atoms: C30_31  and  O3_33 
ROOT
HETATM    1  C4  UNL     1       1.577   7.737  10.301  1.00  0.00     0.025 C 
HETATM    2  C5  UNL     1       1.803   8.847  11.344  1.00  0.00     0.010 C 
HETATM    3  C6  UNL     1       0.827   8.898  12.520  1.00  0.00     0.007 C 
HETATM    4  C7  UNL     1      -0.408   7.975  12.447  1.00  0.00     0.004 C 
HETATM    5  C8  UNL     1       0.035   6.532  12.117  1.00  0.00    -0.027 A 
HETATM    6  C9  UNL     1      -0.071   5.531  13.267  1.00  0.00     0.011 C 
HETATM    7  C10 UNL     1      -1.422   5.539  14.024  1.00  0.00     0.011 C 
HETATM    8  C11 UNL     1      -2.265   6.806  13.798  1.00  0.00    -0.032 C 
HETATM    9  C12 UNL     1      -3.119   6.605  12.517  1.00  0.00     0.016 C 
HETATM   10  C13 UNL     1      -3.212   7.211  14.972  1.00  0.00    -0.002 C 
HETATM   11  C22 UNL     1      -3.430   8.729  14.739  1.00  0.00     0.006 C 
HETATM   12  C23 UNL     1      -2.301   9.207  13.794  1.00  0.00     0.011 C 
HETATM   13  C24 UNL     1      -1.293   8.041  13.745  1.00  0.00    -0.032 C 
HETATM   14  C25 UNL     1      -0.402   8.207  15.026  1.00  0.00     0.016 C 
HETATM   15  C26 UNL     1      -0.266   5.933  10.757  1.00  0.00     0.022 A 
HETATM   16  C27 UNL     1       1.133   6.430  11.013  1.00  0.00    -0.024 A 
ENDROOT
BRANCH  10  17
HETATM   17  C14 UNL     1      -4.479   6.352  15.282  1.00  0.00    -0.014 C 
HETATM   18  C15 UNL     1      -5.709   7.281  15.292  1.00  0.00     0.010 C 
BRANCH  17  19
HETATM   19  C16 UNL     1      -4.743   5.159  14.328  1.00  0.00     0.008 C 
BRANCH  19  20
HETATM   20  C17 UNL     1      -6.148   5.100  13.699  1.00  0.00     0.028 C 
BRANCH  20  21
HETATM   21  C18 UNL     1      -6.486   3.766  13.094  1.00  0.00    -0.025 C 
HETATM   22  C19 UNL     1      -5.821   3.097  12.130  1.00  0.00    -0.091 C 
HETATM   23  C20 UNL     1      -6.325   1.762  11.640  1.00  0.00     0.042 C 
HETATM   24  C21 UNL     1      -4.555   3.553  11.454  1.00  0.00     0.042 C 
ENDBRANCH  20  21
ENDBRANCH  19  20
ENDBRANCH  17  19
ENDBRANCH  10  17
BRANCH  16  25
HETATM   25  C28 UNL     1       2.259   5.416  11.199  1.00  0.00     0.021 C 
BRANCH  25  26
HETATM   26  C29 UNL     1       3.392   5.588  10.187  1.00  0.00     0.111 C 
BRANCH  26  27
HETATM   27  C30 UNL     1       3.470   4.413   9.255  1.00  0.00     0.139 C 
HETATM   28  O2  UNL     1       3.735   4.417   8.064  1.00  0.00    -0.650 OA
BRANCH  27  29
HETATM   29  O3  UNL     1       3.194   3.252   9.886  1.00  0.00    -0.776 OA
HETATM   30  H48 UNL     1       3.261   2.583   9.173  1.00  0.00     0.167 HD
ENDBRANCH  27  29
ENDBRANCH  26  27
ENDBRANCH  25  26
ENDBRANCH  16  25
BRANCH   1  31
HETATM   31  C2  UNL     1       0.787   8.178   9.055  1.00  0.00    -0.061 C 
HETATM   32  C1  UNL     1      -0.387   8.839   9.092  1.00  0.00     0.017 C 
BRANCH  31  33
HETATM   33  C3  UNL     1       1.450   7.925   7.722  1.00  0.00     0.198 C 
BRANCH  33  34
HETATM   34  O1  UNL     1       2.620   8.715   7.604  1.00  0.00    -0.397 OA
HETATM   35  H5  UNL     1       3.005   8.519   6.734  1.00  0.00     0.209 HD
ENDBRANCH  33  34
ENDBRANCH  31  33
ENDBRANCH   1  31
TORSDOF 11
ENDMDL
