MODEL 1
REMARK minimizedAffinity -8.77244282
REMARK  10 active torsions:
REMARK  status: ('A' for Active; 'I' for Inactive)
REMARK    1  A    between atoms: C14_14  and  C15_15 
REMARK    2  A    between atoms: C15_15  and  C17_17 
REMARK    3  A    between atoms: C17_17  and  C18_18 
REMARK    4  A    between atoms: C18_18  and  C19_19 
REMARK    5  A    between atoms: C20_20  and  C22_22 
REMARK    6  A    between atoms: C22_22  and  O2_24 
REMARK    7  A    between atoms: C27_29  and  C28_30 
REMARK    8  A    between atoms: C28_30  and  C29_31 
REMARK    9  A    between atoms: C29_31  and  C30_32 
REMARK   10  A    between atoms: C30_32  and  O4_34 
ROOT
HETATM    1  C1  UNL     1       1.145   6.557   9.746  1.00  0.00     0.043 C 
HETATM    2  C2  UNL     1       0.788   7.213  11.067  1.00  0.00    -0.085 C 
HETATM    3  C3  UNL     1       1.354   8.608  11.139  1.00  0.00     0.043 C 
HETATM    4  C4  UNL     1       0.013   6.599  12.004  1.00  0.00    -0.073 C 
HETATM    5  C5  UNL     1      -0.736   5.330  11.615  1.00  0.00     0.035 C 
HETATM    6  C6  UNL     1      -1.945   5.027  12.501  1.00  0.00     0.010 C 
HETATM    7  C7  UNL     1      -2.773   6.281  12.895  1.00  0.00     0.003 C 
HETATM    8  C8  UNL     1      -1.873   7.497  13.449  1.00  0.00    -0.032 C 
HETATM    9  C9  UNL     1      -2.002   8.746  12.535  1.00  0.00     0.016 C 
HETATM   10  C10 UNL     1      -2.328   7.961  14.868  1.00  0.00     0.011 C 
HETATM   11  C11 UNL     1      -3.844   8.065  15.145  1.00  0.00     0.011 C 
HETATM   12  C12 UNL     1      -4.751   7.168  14.284  1.00  0.00    -0.032 C 
HETATM   13  C13 UNL     1      -5.304   7.988  13.072  1.00  0.00     0.016 C 
HETATM   14  C14 UNL     1      -5.992   6.541  15.014  1.00  0.00    -0.002 C 
HETATM   15  C23 UNL     1      -6.297   5.291  14.130  1.00  0.00     0.006 C 
HETATM   16  C24 UNL     1      -5.073   5.052  13.224  1.00  0.00     0.011 C 
HETATM   17  C25 UNL     1      -3.948   5.891  13.860  1.00  0.00    -0.032 C 
HETATM   18  C26 UNL     1      -3.407   5.031  15.054  1.00  0.00     0.016 C 
HETATM   19  C27 UNL     1      -0.350   7.041  13.440  1.00  0.00     0.024 C 
ENDROOT
BRANCH  14  20
HETATM   20  C15 UNL     1      -7.256   7.418  15.279  1.00  0.00    -0.014 C 
HETATM   21  C16 UNL     1      -7.813   7.174  16.688  1.00  0.00     0.010 C 
BRANCH  20  22
HETATM   22  C17 UNL     1      -8.364   7.129  14.225  1.00  0.00     0.008 C 
BRANCH  22  23
HETATM   23  C18 UNL     1      -9.796   7.189  14.784  1.00  0.00     0.028 C 
BRANCH  23  24
HETATM   24  C19 UNL     1     -10.828   7.658  13.798  1.00  0.00    -0.013 C 
HETATM   25  C20 UNL     1     -11.251   8.920  13.581  1.00  0.00     0.008 C 
HETATM   26  C21 UNL     1     -10.805  10.141  14.325  1.00  0.00     0.055 C 
BRANCH  25  27
HETATM   27  C22 UNL     1     -12.275   9.097  12.517  1.00  0.00     0.171 C 
HETATM   28  O1  UNL     1     -13.460   8.823  12.591  1.00  0.00    -0.646 OA
BRANCH  27  29
HETATM   29  O2  UNL     1     -11.756   9.612  11.390  1.00  0.00    -0.773 OA
HETATM   30  H35 UNL     1     -12.528   9.663  10.788  1.00  0.00     0.167 HD
ENDBRANCH  27  29
ENDBRANCH  25  27
ENDBRANCH  23  24
ENDBRANCH  22  23
ENDBRANCH  20  22
ENDBRANCH  14  20
BRANCH  19  31
HETATM   31  C28 UNL     1       0.661   7.938  14.208  1.00  0.00     0.020 C 
BRANCH  31  32
HETATM   32  C29 UNL     1       0.795   7.567  15.691  1.00  0.00     0.110 C 
BRANCH  32  33
HETATM   33  C30 UNL     1       2.173   7.728  16.261  1.00  0.00     0.139 C 
HETATM   34  O3  UNL     1       2.554   8.636  16.982  1.00  0.00    -0.650 OA
BRANCH  33  35
HETATM   35  O4  UNL     1       3.018   6.755  15.873  1.00  0.00    -0.776 OA
HETATM   36  H48 UNL     1       3.851   6.979  16.338  1.00  0.00     0.167 HD
ENDBRANCH  33  35
ENDBRANCH  32  33
ENDBRANCH  31  32
ENDBRANCH  19  31
TORSDOF 10
ENDMDL
