MODEL 1
REMARK minimizedAffinity -10.3123169
REMARK CNNscore 0.338940352
REMARK CNNaffinity 7.02842665
REMARK  11 active torsions:
REMARK  status: ('A' for Active; 'I' for Inactive)
REMARK    1  A    between atoms: C2_2  and  O1_4 
REMARK    2  A    between atoms: C2_2  and  C4_5 
REMARK    3  A    between atoms: C5_6  and  C6_7 
REMARK    4  A    between atoms: C6_7  and  C7_8 
REMARK    5  A    between atoms: C7_8  and  C8_9 
REMARK    6  A    between atoms: C7_8  and  C14_21 
REMARK    7  A    between atoms: C8_9  and  O3_11 
REMARK    8  A    between atoms: O3_11  and  C9_12 
REMARK    9  A    between atoms: C11_15  and  O5_16 
REMARK   10  A    between atoms: C12_17  and  O6_18 
REMARK   11  A    between atoms: C13_19  and  O7_20 
ROOT
HETATM    1  C7  UNL     1      -3.405  49.972 -26.079  1.00  0.00     0.094 C 
ENDROOT
BRANCH   1   2
HETATM    2  C6  UNL     1      -1.932  49.521 -26.128  1.00  0.00     0.042 C 
BRANCH   2   3
HETATM    3  C5  UNL     1      -1.032  50.552 -26.772  1.00  0.00    -0.027 C 
HETATM    4  C4  UNL     1       0.143  50.942 -26.248  1.00  0.00     0.006 C 
BRANCH   4   5
HETATM    5  C2  UNL     1       1.129  51.934 -26.822  1.00  0.00     0.068 C 
HETATM    6  C1  UNL     1       2.556  51.427 -26.594  1.00  0.00     0.050 C 
HETATM    7  C3  UNL     1       0.924  52.271 -28.300  1.00  0.00     0.050 C 
BRANCH   5   8
HETATM    8  O1  UNL     1       0.972  53.137 -26.070  1.00  0.00    -0.387 OA
HETATM    9  H7  UNL     1       0.052  53.419 -26.197  1.00  0.00     0.211 HD
ENDBRANCH   5   8
ENDBRANCH   4   5
ENDBRANCH   2   3
ENDBRANCH   1   2
BRANCH   1  10
HETATM   10  C8  UNL     1      -4.274  48.835 -26.604  1.00  0.00     0.266 C 
HETATM   11  O2  UNL     1      -4.588  47.860 -25.930  1.00  0.00    -0.265 OA
BRANCH  10  12
HETATM   12  O3  UNL     1      -4.664  49.048 -27.890  1.00  0.00    -0.287 OA
BRANCH  12  13
HETATM   13  C9  UNL     1      -4.977  47.852 -28.613  1.00  0.00     0.300 C 
HETATM   14  O4  UNL     1      -4.541  47.981 -29.985  1.00  0.00    -0.355 OA
HETATM   15  C10 UNL     1      -5.546  48.541 -30.831  1.00  0.00     0.205 C 
HETATM   16  C11 UNL     1      -6.696  47.537 -30.991  1.00  0.00     0.173 C 
HETATM   17  C12 UNL     1      -6.895  46.688 -29.717  1.00  0.00     0.182 C 
HETATM   18  C13 UNL     1      -6.486  47.485 -28.484  1.00  0.00     0.205 C 
BRANCH  16  19
HETATM   19  O5  UNL     1      -6.431  46.627 -32.075  1.00  0.00    -0.391 OA
HETATM   20  H17 UNL     1      -5.503  46.339 -31.989  1.00  0.00     0.210 HD
ENDBRANCH  16  19
BRANCH  17  21
HETATM   21  O6  UNL     1      -8.276  46.306 -29.607  1.00  0.00    -0.390 OA
HETATM   22  H19 UNL     1      -8.505  45.884 -30.456  1.00  0.00     0.210 HD
ENDBRANCH  17  21
BRANCH  18  23
HETATM   23  O7  UNL     1      -7.330  48.655 -28.417  1.00  0.00    -0.388 OA
HETATM   24  H21 UNL     1      -8.239  48.303 -28.354  1.00  0.00     0.210 HD
ENDBRANCH  18  23
ENDBRANCH  12  13
ENDBRANCH  10  12
ENDBRANCH   1  10
BRANCH   1  25
HETATM   25  C14 UNL     1      -3.953  50.475 -24.714  1.00  0.00     0.009 C 
HETATM   26  C15 UNL     1      -5.428  50.135 -24.370  1.00  0.00     0.007 C 
HETATM   27  C16 UNL     1      -5.509  49.971 -22.834  1.00  0.00     0.015 C 
HETATM   28  C17 UNL     1      -4.176  50.539 -22.303  1.00  0.00    -0.013 C 
HETATM   29  C18 UNL     1      -4.359  52.088 -22.195  1.00  0.00     0.021 C 
HETATM   30  C19 UNL     1      -3.658  50.112 -20.932  1.00  0.00    -0.068 C 
HETATM   31  C23 UNL     1      -3.190  50.048 -23.423  1.00  0.00    -0.028 C 
HETATM   32  C20 UNL     1      -2.324  50.103 -20.678  1.00  0.00    -0.068 C 
HETATM   33  C35 UNL     1      -4.705  49.792 -19.895  1.00  0.00     0.036 C 
HETATM   34  C21 UNL     1      -1.301  50.430 -21.776  1.00  0.00     0.036 C 
HETATM   35  C25 UNL     1      -1.758  49.719 -19.283  1.00  0.00    -0.015 C 
HETATM   36  C22 UNL     1      -1.837  50.726 -23.194  1.00  0.00     0.015 C 
HETATM   37  C26 UNL     1      -1.338  48.233 -19.351  1.00  0.00     0.020 C 
HETATM   38  C27 UNL     1      -0.549  50.607 -18.913  1.00  0.00     0.021 C 
HETATM   39  C33 UNL     1      -2.835  49.993 -18.181  1.00  0.00     0.013 C 
HETATM   40  C28 UNL     1       0.045  50.355 -17.540  1.00  0.00     0.080 C 
HETATM   41  C29 UNL     1      -0.852  49.651 -16.549  1.00  0.00     0.135 C 
HETATM   42  O8  UNL     1      -0.331  49.080 -15.586  1.00  0.00    -0.297 OA
HETATM   43  C30 UNL     1      -2.376  49.731 -16.703  1.00  0.00     0.018 C 
HETATM   44  C31 UNL     1      -2.824  50.912 -15.814  1.00  0.00     0.023 C 
HETATM   45  C32 UNL     1      -2.973  48.438 -16.101  1.00  0.00     0.023 C 
HETATM   46  C34 UNL     1      -4.164  49.314 -18.549  1.00  0.00     0.011 C 
HETATM   47  C24 UNL     1      -2.964  48.504 -23.420  1.00  0.00     0.016 C 
ENDBRANCH   1  25
TORSDOF 11
ENDMDL
