MODEL 1
REMARK minimizedAffinity -7.25805998
REMARK CNNscore 0.517097473
REMARK CNNaffinity 6.20279837
REMARK  5 active torsions:
REMARK  status: ('A' for Active; 'I' for Inactive)
REMARK    1  A    between atoms: C2_2  and  C3_3 
REMARK    2  A    between atoms: C6_6  and  O1_7 
REMARK    3  A    between atoms: C7_8  and  C8_9 
REMARK    4  A    between atoms: C8_9  and  C9_10 
REMARK    5  A    between atoms: C26_32  and  O6_33 
ROOT
HETATM    1  C3  UNL     1       2.508  49.135 -10.836  1.00  0.00     0.008 C 
HETATM    2  C4  UNL     1       3.891  49.739 -10.722  1.00  0.00    -0.023 C 
HETATM    3  C5  UNL     1       4.453  50.375  -9.678  1.00  0.00     0.003 C 
HETATM    4  C6  UNL     1       3.937  50.687  -8.293  1.00  0.00     0.170 C 
HETATM    5  C7  UNL     1       4.450  52.045  -7.738  1.00  0.00     0.164 C 
HETATM    6  O2  UNL     1       3.790  53.164  -8.393  1.00  0.00    -0.312 OA
HETATM    7  C12 UNL     1       4.523  53.872  -9.304  1.00  0.00     0.276 C 
HETATM    8  O3  UNL     1       5.578  53.480  -9.791  1.00  0.00    -0.264 OA
HETATM    9  C13 UNL     1       3.973  55.322  -9.444  1.00  0.00     0.095 A 
HETATM   10  C14 UNL     1       4.493  55.977 -10.750  1.00  0.00     0.036 C 
HETATM   11  C15 UNL     1       4.731  56.032  -8.334  1.00  0.00     0.003 A 
HETATM   12  C16 UNL     1       4.355  56.757  -7.282  1.00  0.00     0.072 A 
HETATM   13  C17 UNL     1       3.019  57.142  -6.831  1.00  0.00     0.245 A 
HETATM   14  O4  UNL     1       2.924  57.856  -5.833  1.00  0.00    -0.268 OA
HETATM   15  N1  UNL     1       1.907  56.730  -7.463  1.00  0.00    -0.320 N 
HETATM   16  C18 UNL     1       1.606  55.934  -8.540  1.00  0.00     0.098 A 
HETATM   17  C19 UNL     1       2.438  55.317  -9.396  1.00  0.00     0.045 A 
HETATM   18  C20 UNL     1       1.810  54.501 -10.502  1.00  0.00     0.194 C 
HETATM   19  O5  UNL     1       2.477  54.157 -11.468  1.00  0.00    -0.287 OA
HETATM   20  C21 UNL     1       0.379  54.145 -10.481  1.00  0.00     0.046 A 
HETATM   21  C22 UNL     1      -0.453  54.867  -9.639  1.00  0.00     0.032 A 
HETATM   22  C23 UNL     1      -1.847  54.698  -9.674  1.00  0.00     0.026 A 
HETATM   23  C24 UNL     1      -2.434  53.809 -10.578  1.00  0.00    -0.027 A 
HETATM   24  C25 UNL     1      -3.926  53.642 -10.612  1.00  0.00     0.051 C 
HETATM   25  C26 UNL     1      -1.599  53.060 -11.409  1.00  0.00     0.086 A 
HETATM   26  C27 UNL     1      -0.195  53.192 -11.347  1.00  0.00     0.059 A 
HETATM   27  C28 UNL     1       0.585  52.232 -12.176  1.00  0.00     0.163 C 
HETATM   28  O7  UNL     1       0.190  52.006 -13.320  1.00  0.00    -0.292 OA
HETATM   29  C29 UNL     1       1.720  51.469 -11.532  1.00  0.00     0.084 C 
HETATM   30  C30 UNL     1       1.619  49.964 -11.789  1.00  0.00     0.016 C 
HETATM   31  C31 UNL     1       0.113  55.826  -8.690  1.00  0.00     0.210 C 
HETATM   32  O8  UNL     1      -0.623  56.518  -7.989  1.00  0.00    -0.285 OA
HETATM   33  H26 UNL     1       1.079  57.107  -6.993  1.00  0.00     0.169 HD
ENDROOT
BRANCH   5  34
HETATM   34  C8  UNL     1       4.129  52.248  -6.240  1.00  0.00     0.039 C 
BRANCH  34  35
HETATM   35  C9  UNL     1       5.219  52.918  -5.384  1.00  0.00    -0.020 C 
HETATM   36  C10 UNL     1       4.656  54.187  -4.737  1.00  0.00     0.009 C 
HETATM   37  C11 UNL     1       6.470  53.265  -6.192  1.00  0.00     0.009 C 
ENDBRANCH  34  35
ENDBRANCH   5  34
BRANCH   4  38
HETATM   38  O1  UNL     1       2.514  50.656  -8.237  1.00  0.00    -0.389 OA
HETATM   39  H10 UNL     1       2.269  50.411  -7.330  1.00  0.00     0.210 HD
ENDBRANCH   4  38
BRANCH   1  40
HETATM   40  C2  UNL     1       2.634  47.667 -11.293  1.00  0.00     0.004 C 
HETATM   41  C1  UNL     1       2.614  47.499 -12.806  1.00  0.00     0.006 C 
ENDBRANCH   1  40
BRANCH  25  42
HETATM   42  O6  UNL     1      -2.208  52.187 -12.277  1.00  0.00    -0.359 OA
HETATM   43  H31 UNL     1      -1.562  51.941 -12.978  1.00  0.00     0.217 HD
ENDBRANCH  25  42
TORSDOF 5
ENDMDL
