MODEL 1
REMARK minimizedAffinity -8.45888805
REMARK  6 active torsions:
REMARK  status: ('A' for Active; 'I' for Inactive)
REMARK    1  A    between atoms: C9_10  and  C10_11 
REMARK    2  A    between atoms: C11_13  and  O3_14 
REMARK    3  A    between atoms: C12_15  and  C13_16 
REMARK    4  A    between atoms: C14_18  and  O5_19 
REMARK    5  A    between atoms: C16_21  and  C17_22 
REMARK    6  A    between atoms: C17_22  and  C18_23 
ROOT
HETATM    1  C1  UNL     1      -6.652   5.418  15.288  1.00  0.00     0.043 C 
HETATM    2  C2  UNL     1      -5.828   5.925  14.119  1.00  0.00    -0.087 C 
HETATM    3  C3  UNL     1      -5.635   7.255  14.012  1.00  0.00    -0.024 C 
HETATM    4  C4  UNL     1      -4.935   8.068  12.970  1.00  0.00     0.030 C 
HETATM    5  C5  UNL     1      -3.730   8.855  13.494  1.00  0.00     0.042 C 
HETATM    6  C6  UNL     1      -2.482   8.083  14.016  1.00  0.00     0.069 C 
HETATM    7  C7  UNL     1      -2.815   7.314  15.315  1.00  0.00     0.047 C 
HETATM    8  O1  UNL     1      -1.613   9.185  14.466  1.00  0.00    -0.338 OA
HETATM    9  C8  UNL     1      -0.308   8.818  14.677  1.00  0.00     0.095 A 
HETATM   10  C9  UNL     1       0.336   9.193  15.859  1.00  0.00     0.070 A 
HETATM   11  C11 UNL     1       1.646   8.760  16.096  1.00  0.00     0.097 A 
HETATM   12  C12 UNL     1       2.291   7.962  15.146  1.00  0.00     0.069 A 
HETATM   13  C14 UNL     1       1.638   7.620  13.942  1.00  0.00     0.091 A 
HETATM   14  C15 UNL     1       0.345   8.085  13.675  1.00  0.00     0.015 A 
HETATM   15  C16 UNL     1      -0.487   7.901  12.419  1.00  0.00     0.032 C 
HETATM   16  C21 UNL     1      -1.829   7.214  12.839  1.00  0.00     0.034 C 
HETATM   17  C22 UNL     1      -1.660   5.753  13.230  1.00  0.00     0.006 A 
HETATM   18  C23 UNL     1      -2.797   4.729  13.128  1.00  0.00    -0.001 A 
HETATM   19  C24 UNL     1      -4.093   4.867  12.366  1.00  0.00     0.010 C 
HETATM   20  C25 UNL     1      -5.371   4.800  13.210  1.00  0.00     0.034 C 
HETATM   21  C26 UNL     1      -1.522   4.540  12.308  1.00  0.00    -0.039 A 
HETATM   22  C27 UNL     1      -0.570   3.452  12.757  1.00  0.00     0.015 C 
HETATM   23  C28 UNL     1      -1.613   4.633  10.803  1.00  0.00     0.015 C 
ENDROOT
BRANCH  15  24
HETATM   24  C17 UNL     1       0.163   7.321  11.151  1.00  0.00     0.014 C 
BRANCH  24  25
HETATM   25  C18 UNL     1       0.663   8.367  10.124  1.00  0.00    -0.022 C 
HETATM   26  C19 UNL     1      -0.371   8.650   9.030  1.00  0.00     0.009 C 
HETATM   27  C20 UNL     1       1.960   7.869   9.478  1.00  0.00     0.009 C 
ENDBRANCH  24  25
ENDBRANCH  15  24
BRANCH  13  28
HETATM   28  O5  UNL     1       2.246   6.806  13.025  1.00  0.00    -0.359 OA
HETATM   29  H15 UNL     1       3.154   6.587  13.337  1.00  0.00     0.217 HD
ENDBRANCH  13  28
BRANCH  10  30
HETATM   30  C10 UNL     1      -0.384  10.014  16.851  1.00  0.00     0.275 C 
HETATM   31  O2  UNL     1      -1.323   9.535  17.483  1.00  0.00    -0.301 OA
ENDBRANCH  10  30
BRANCH  12  32
HETATM   32  C13 UNL     1       3.661   7.480  15.424  1.00  0.00     0.275 C 
HETATM   33  O4  UNL     1       4.562   8.275  15.685  1.00  0.00    -0.301 OA
ENDBRANCH  12  32
BRANCH  11  34
HETATM   34  O3  UNL     1       2.315   9.084  17.250  1.00  0.00    -0.359 OA
HETATM   35  H13 UNL     1       1.722   9.635  17.816  1.00  0.00     0.217 HD
ENDBRANCH  11  34
TORSDOF 6
ENDMDL
