MODEL 1
REMARK minimizedAffinity -9.40694523
REMARK  5 active torsions:
REMARK  status: ('A' for Active; 'I' for Inactive)
REMARK    1  A    between atoms: C2_2  and  C3_3 
REMARK    2  A    between atoms: C2_2  and  C25_27 
REMARK    3  A    between atoms: C3_3  and  C4_4 
REMARK    4  A    between atoms: C4_4  and  C5_5 
REMARK    5  A    between atoms: C15_15  and  O1_16 
ROOT
HETATM    1  C5  UNL     1      -1.002  50.337 -18.534  1.00  0.00    -0.023 C 
HETATM    2  C6  UNL     1      -1.426  49.759 -19.674  1.00  0.00    -0.075 C 
HETATM    3  C7  UNL     1      -1.068  48.367 -20.114  1.00  0.00     0.035 C 
HETATM    4  C8  UNL     1      -1.538  48.305 -21.561  1.00  0.00     0.013 C 
HETATM    5  C9  UNL     1      -2.777  49.211 -21.594  1.00  0.00     0.033 C 
HETATM    6  C10 UNL     1      -3.292  49.573 -23.008  1.00  0.00     0.070 C 
HETATM    7  C11 UNL     1      -3.474  48.320 -23.910  1.00  0.00     0.039 C 
HETATM    8  C12 UNL     1      -3.150  48.584 -25.379  1.00  0.00     0.009 C 
HETATM    9  C13 UNL     1      -3.700  49.925 -25.885  1.00  0.00    -0.001 C 
HETATM   10  C14 UNL     1      -3.047  50.288 -27.235  1.00  0.00     0.037 C 
HETATM   11  C15 UNL     1      -1.805  51.153 -27.060  1.00  0.00     0.118 C 
HETATM   12  C16 UNL     1      -2.130  52.481 -26.375  1.00  0.00     0.032 C 
HETATM   13  C17 UNL     1      -3.389  52.421 -25.506  1.00  0.00     0.015 C 
HETATM   14  C18 UNL     1      -3.580  51.065 -24.810  1.00  0.00    -0.009 C 
HETATM   15  C19 UNL     1      -4.855  51.062 -23.944  1.00  0.00     0.179 C 
HETATM   16  O2  UNL     1      -4.634  50.123 -22.876  1.00  0.00    -0.379 OA
HETATM   17  C20 UNL     1      -2.531  50.700 -23.730  1.00  0.00     0.032 C 
HETATM   18  C21 UNL     1      -2.178  51.879 -22.804  1.00  0.00     0.009 C 
HETATM   19  C22 UNL     1      -1.486  51.423 -21.529  1.00  0.00     0.014 C 
HETATM   20  C23 UNL     1      -2.333  50.420 -20.719  1.00  0.00    -0.014 C 
HETATM   21  C24 UNL     1      -3.544  51.109 -20.066  1.00  0.00     0.020 C 
ENDROOT
BRANCH   1  22
HETATM   22  C4  UNL     1      -0.132  49.700 -17.480  1.00  0.00     0.031 C 
BRANCH  22  23
HETATM   23  C3  UNL     1       0.166  50.692 -16.343  1.00  0.00     0.037 C 
BRANCH  23  24
HETATM   24  C2  UNL     1       1.185  51.791 -16.624  1.00  0.00    -0.086 C 
HETATM   25  C1  UNL     1       1.175  52.555 -17.732  1.00  0.00     0.014 C 
BRANCH  24  26
HETATM   26  C25 UNL     1       2.274  52.010 -15.573  1.00  0.00     0.005 C 
HETATM   27  C26 UNL     1       2.385  50.831 -14.602  1.00  0.00     0.014 C 
HETATM   28  C27 UNL     1       3.636  52.323 -16.201  1.00  0.00     0.014 C 
ENDBRANCH  24  26
ENDBRANCH  23  24
ENDBRANCH  22  23
ENDBRANCH   1  22
BRANCH  11  29
HETATM   29  O1  UNL     1      -1.201  51.393 -28.327  1.00  0.00    -0.396 OA
HETATM   30  H21 UNL     1      -1.823  51.913 -28.865  1.00  0.00     0.210 HD
ENDBRANCH  11  29
TORSDOF 5
ENDMDL
