MODEL 1
REMARK minimizedAffinity -10.0815935
REMARK  5 active torsions:
REMARK  status: ('A' for Active; 'I' for Inactive)
REMARK    1  A    between atoms: C2_2  and  C4_4 
REMARK    2  A    between atoms: C7_7  and  C8_8 
REMARK    3  A    between atoms: C8_8  and  O2_10 
REMARK    4  A    between atoms: C22_25  and  C24_27 
REMARK    5  A    between atoms: C24_27  and  O4_28 
ROOT
HETATM    1  C4  UNL     1       0.783  53.247 -23.972  1.00  0.00     0.019 C 
HETATM    2  C5  UNL     1       0.130  54.257 -24.918  1.00  0.00     0.011 C 
HETATM    3  C6  UNL     1       0.081  53.556 -26.272  1.00  0.00     0.021 C 
HETATM    4  C7  UNL     1       0.159  52.032 -26.010  1.00  0.00     0.050 C 
HETATM    5  C9  UNL     1      -1.078  51.294 -26.561  1.00  0.00     0.022 C 
HETATM    6  C10 UNL     1      -2.364  51.609 -25.798  1.00  0.00     0.011 C 
HETATM    7  C11 UNL     1      -2.317  51.292 -24.271  1.00  0.00    -0.032 C 
HETATM    8  C12 UNL     1      -2.862  52.562 -23.558  1.00  0.00     0.016 C 
HETATM    9  C13 UNL     1      -0.838  51.001 -23.833  1.00  0.00     0.000 C 
HETATM   10  C14 UNL     1      -0.730  50.736 -22.326  1.00  0.00     0.006 C 
HETATM   11  C15 UNL     1      -1.619  49.568 -21.882  1.00  0.00     0.006 C 
HETATM   12  C16 UNL     1      -3.098  49.726 -22.313  1.00  0.00     0.003 C 
HETATM   13  C17 UNL     1      -4.078  48.643 -21.678  1.00  0.00    -0.035 C 
HETATM   14  C18 UNL     1      -3.650  47.194 -22.006  1.00  0.00     0.016 C 
HETATM   15  C19 UNL     1      -4.009  48.781 -20.117  1.00  0.00     0.017 C 
HETATM   16  C20 UNL     1      -5.295  48.471 -19.361  1.00  0.00     0.080 C 
HETATM   17  C21 UNL     1      -6.240  47.573 -20.118  1.00  0.00     0.137 C 
HETATM   18  O3  UNL     1      -6.762  46.609 -19.556  1.00  0.00    -0.297 OA
HETATM   19  C22 UNL     1      -6.650  48.004 -21.530  1.00  0.00     0.042 C 
HETATM   20  C23 UNL     1      -6.923  46.755 -22.394  1.00  0.00     0.026 C 
HETATM   21  C25 UNL     1      -5.551  48.961 -22.125  1.00  0.00     0.012 C 
HETATM   22  C26 UNL     1      -5.678  49.143 -23.649  1.00  0.00     0.007 C 
HETATM   23  C27 UNL     1      -4.743  50.232 -24.181  1.00  0.00     0.011 C 
HETATM   24  C28 UNL     1      -3.234  49.992 -23.870  1.00  0.00    -0.032 C 
HETATM   25  C29 UNL     1      -2.776  48.758 -24.706  1.00  0.00     0.016 C 
HETATM   26  C30 UNL     1       0.316  51.850 -24.459  1.00  0.00     0.017 C 
ENDROOT
BRANCH   4  27
HETATM   27  C8  UNL     1       1.407  51.508 -26.735  1.00  0.00     0.149 C 
HETATM   28  O1  UNL     1       2.419  51.048 -26.229  1.00  0.00    -0.649 OA
BRANCH  27  29
HETATM   29  O2  UNL     1       1.338  51.629 -28.075  1.00  0.00    -0.776 OA
HETATM   30  H11 UNL     1       2.201  51.285 -28.383  1.00  0.00     0.167 HD
ENDBRANCH  27  29
ENDBRANCH   4  27
BRANCH   1  31
HETATM   31  C2  UNL     1       0.787  53.564 -22.492  1.00  0.00    -0.088 C 
HETATM   32  C1  UNL     1       1.547  54.498 -21.904  1.00  0.00     0.014 C 
HETATM   33  C3  UNL     1      -0.087  52.666 -21.650  1.00  0.00     0.043 C 
ENDBRANCH   1  31
BRANCH  19  34
HETATM   34  C24 UNL     1      -7.977  48.788 -21.345  1.00  0.00     0.181 C 
BRANCH  34  35
HETATM   35  O4  UNL     1      -8.723  48.343 -20.217  1.00  0.00    -0.400 OA
HETATM   36  H37 UNL     1      -8.137  48.387 -19.431  1.00  0.00     0.209 HD
ENDBRANCH  34  35
ENDBRANCH  19  34
TORSDOF 5
ENDMDL
