MODEL 1
REMARK minimizedAffinity -7.11129904
REMARK CNNscore 0.799067557
REMARK CNNaffinity 6.25774622
REMARK  8 active torsions:
REMARK  status: ('A' for Active; 'I' for Inactive)
REMARK    1  A    between atoms: C4_4  and  C5_5 
REMARK    2  A    between atoms: C5_5  and  C6_6 
REMARK    3  A    between atoms: C6_6  and  C7_7 
REMARK    4  A    between atoms: C7_7  and  C9_9 
REMARK    5  A    between atoms: C25_26  and  C27_28 
REMARK    6  A    between atoms: C27_28  and  O3_30 
REMARK    7  A    between atoms: C28_31  and  O4_32 
REMARK    8  A    between atoms: C30_34  and  O5_35 
ROOT
HETATM    1  C9  UNL     1     -10.940  45.005 -27.714  1.00  0.00    -0.002 C 
HETATM    2  C10 UNL     1     -10.743  46.440 -27.152  1.00  0.00     0.007 C 
HETATM    3  C11 UNL     1     -12.019  46.798 -26.361  1.00  0.00     0.015 C 
HETATM    4  C12 UNL     1     -12.796  45.470 -26.219  1.00  0.00    -0.005 C 
HETATM    5  C13 UNL     1     -12.192  44.724 -24.988  1.00  0.00     0.021 C 
HETATM    6  C14 UNL     1     -14.297  45.463 -25.959  1.00  0.00    -0.000 C 
HETATM    7  C15 UNL     1     -15.089  44.446 -26.394  1.00  0.00    -0.058 C 
HETATM    8  C16 UNL     1     -14.509  43.322 -27.269  1.00  0.00     0.036 C 
HETATM    9  C17 UNL     1     -13.010  43.387 -27.613  1.00  0.00     0.015 C 
HETATM   10  C18 UNL     1     -12.486  44.823 -27.634  1.00  0.00    -0.028 C 
HETATM   11  C19 UNL     1     -13.201  45.574 -28.799  1.00  0.00     0.016 C 
HETATM   12  C20 UNL     1     -16.628  44.365 -26.102  1.00  0.00     0.011 C 
HETATM   13  C21 UNL     1     -17.289  44.869 -27.409  1.00  0.00     0.023 C 
HETATM   14  C22 UNL     1     -16.962  45.257 -24.864  1.00  0.00     0.029 C 
HETATM   15  C23 UNL     1     -16.371  46.663 -24.988  1.00  0.00     0.090 C 
HETATM   16  C24 UNL     1     -14.875  46.589 -25.158  1.00  0.00     0.157 C 
HETATM   17  O1  UNL     1     -14.161  47.464 -24.672  1.00  0.00    -0.293 OA
HETATM   18  C25 UNL     1     -18.453  45.229 -24.356  1.00  0.00     0.072 C 
HETATM   19  C26 UNL     1     -18.386  45.374 -22.801  1.00  0.00     0.030 C 
HETATM   20  C28 UNL     1     -19.154  43.873 -24.650  1.00  0.00     0.139 C 
HETATM   21  C29 UNL     1     -18.160  42.718 -24.683  1.00  0.00     0.065 C 
HETATM   22  C30 UNL     1     -17.050  42.888 -25.738  1.00  0.00     0.133 C 
ENDROOT
BRANCH   1  23
HETATM   23  C7  UNL     1     -10.081  44.733 -28.987  1.00  0.00    -0.014 C 
HETATM   24  C8  UNL     1     -10.390  43.434 -29.744  1.00  0.00     0.010 C 
BRANCH  23  25
HETATM   25  C6  UNL     1      -8.547  44.831 -28.785  1.00  0.00     0.008 C 
BRANCH  25  26
HETATM   26  C5  UNL     1      -7.877  46.086 -29.369  1.00  0.00     0.028 C 
BRANCH  26  27
HETATM   27  C4  UNL     1      -6.932  46.778 -28.424  1.00  0.00    -0.025 C 
HETATM   28  C2  UNL     1      -5.878  47.564 -28.721  1.00  0.00    -0.091 C 
HETATM   29  C1  UNL     1      -5.413  47.895 -30.113  1.00  0.00     0.042 C 
HETATM   30  C3  UNL     1      -5.049  48.191 -27.625  1.00  0.00     0.042 C 
ENDBRANCH  26  27
ENDBRANCH  25  26
ENDBRANCH  23  25
ENDBRANCH   1  23
BRANCH  22  31
HETATM   31  O5  UNL     1     -17.425  42.148 -26.903  1.00  0.00    -0.394 OA
HETATM   32  H46 UNL     1     -18.261  42.535 -27.229  1.00  0.00     0.210 HD
ENDBRANCH  22  31
BRANCH  18  33
HETATM   33  C27 UNL     1     -19.351  46.378 -24.827  1.00  0.00     0.151 C 
HETATM   34  O2  UNL     1     -20.488  46.266 -25.264  1.00  0.00    -0.649 OA
BRANCH  33  35
HETATM   35  O3  UNL     1     -18.785  47.592 -24.755  1.00  0.00    -0.776 OA
HETATM   36  H40 UNL     1     -19.463  48.190 -25.139  1.00  0.00     0.167 HD
ENDBRANCH  33  35
ENDBRANCH  18  33
BRANCH  20  37
HETATM   37  O4  UNL     1     -19.878  43.839 -25.883  1.00  0.00    -0.394 OA
HETATM   38  H42 UNL     1     -20.525  43.117 -25.797  1.00  0.00     0.210 HD
ENDBRANCH  20  37
TORSDOF 8
ENDMDL
