MODEL 1
REMARK minimizedAffinity -7.58375931
REMARK CNNscore 0.771876097
REMARK CNNaffinity 7.05828333
REMARK  4 active torsions:
REMARK  status: ('A' for Active; 'I' for Inactive)
REMARK    1  A    between atoms: C4_4  and  C5_5 
REMARK    2  A    between atoms: C5_5  and  C6_6 
REMARK    3  A    between atoms: C6_6  and  C7_7 
REMARK    4  A    between atoms: C7_7  and  C9_9 
ROOT
HETATM    1  C9  UNL     1      -1.909  52.193  -9.802  1.00  0.00    -0.002 C 
HETATM    2  C10 UNL     1      -1.690  51.177  -8.656  1.00  0.00     0.007 C 
HETATM    3  C11 UNL     1      -0.269  51.435  -8.103  1.00  0.00     0.015 C 
HETATM    4  C12 UNL     1       0.414  52.330  -9.163  1.00  0.00    -0.013 C 
HETATM    5  C13 UNL     1       0.943  51.364 -10.272  1.00  0.00     0.021 C 
HETATM    6  C14 UNL     1       1.619  53.188  -8.783  1.00  0.00    -0.070 C 
HETATM    7  C15 UNL     1       2.343  52.955  -7.675  1.00  0.00    -0.022 C 
HETATM    8  C16 UNL     1       3.642  53.628  -7.359  1.00  0.00     0.035 C 
HETATM    9  C17 UNL     1       4.256  54.409  -8.552  1.00  0.00     0.032 C 
HETATM   10  C18 UNL     1       5.634  55.092  -8.175  1.00  0.00     0.068 C 
HETATM   11  C19 UNL     1       6.393  54.421  -7.010  1.00  0.00     0.047 C 
HETATM   12  C20 UNL     1       6.604  55.018  -9.379  1.00  0.00     0.047 C 
HETATM   13  O1  UNL     1       5.491  56.498  -7.900  1.00  0.00    -0.310 OA
HETATM   14  C21 UNL     1       4.555  56.822  -6.975  1.00  0.00     0.259 C 
HETATM   15  O2  UNL     1       4.659  56.632  -5.774  1.00  0.00    -0.265 OA
HETATM   16  C22 UNL     1       3.359  57.402  -7.659  1.00  0.00     0.112 C 
HETATM   17  C23 UNL     1       2.465  56.309  -8.239  1.00  0.00     0.020 C 
HETATM   18  C24 UNL     1       3.123  55.295  -9.243  1.00  0.00    -0.029 C 
HETATM   19  C25 UNL     1       3.666  56.087 -10.455  1.00  0.00     0.016 C 
HETATM   20  C26 UNL     1       2.028  54.260  -9.805  1.00  0.00     0.024 C 
HETATM   21  C27 UNL     1       0.823  54.952 -10.522  1.00  0.00     0.010 C 
HETATM   22  C28 UNL     1      -0.399  54.063 -10.811  1.00  0.00     0.011 C 
HETATM   23  C29 UNL     1      -0.792  53.251  -9.569  1.00  0.00    -0.029 C 
HETATM   24  C30 UNL     1      -1.170  54.240  -8.428  1.00  0.00     0.016 C 
ENDROOT
BRANCH   1  25
HETATM   25  C7  UNL     1      -3.370  52.596 -10.145  1.00  0.00    -0.014 C 
HETATM   26  C8  UNL     1      -3.398  54.052 -10.644  1.00  0.00     0.010 C 
BRANCH  25  27
HETATM   27  C6  UNL     1      -4.276  51.695 -11.016  1.00  0.00     0.008 C 
BRANCH  27  28
HETATM   28  C5  UNL     1      -4.660  50.282 -10.555  1.00  0.00     0.028 C 
BRANCH  28  29
HETATM   29  C4  UNL     1      -6.077  50.149 -10.071  1.00  0.00    -0.025 C 
HETATM   30  C2  UNL     1      -7.002  49.242 -10.442  1.00  0.00    -0.091 C 
HETATM   31  C1  UNL     1      -6.783  48.125 -11.424  1.00  0.00     0.042 C 
HETATM   32  C3  UNL     1      -8.391  49.283  -9.858  1.00  0.00     0.042 C 
ENDBRANCH  28  29
ENDBRANCH  27  28
ENDBRANCH  25  27
ENDBRANCH   1  25
TORSDOF 4
ENDMDL
