MODEL 1
REMARK minimizedAffinity -9.70855522
REMARK  8 active torsions:
REMARK  status: ('A' for Active; 'I' for Inactive)
REMARK    1  A    between atoms: C2_2  and  C3_3 
REMARK    2  A    between atoms: C2_2  and  C9_12 
REMARK    3  A    between atoms: C3_3  and  C4_4 
REMARK    4  A    between atoms: C4_4  and  C5_5 
REMARK    5  A    between atoms: C6_6  and  C7_7 
REMARK    6  A    between atoms: C6_6  and  C8_9 
REMARK    7  A    between atoms: C7_7  and  O1_8 
REMARK    8  A    between atoms: C8_9  and  O3_11 
ROOT
HETATM    1  C9  UNL     1      -5.800  48.158 -22.337  1.00  0.00    -0.002 C 
HETATM    2  C10 UNL     1      -5.702  49.034 -21.055  1.00  0.00     0.006 C 
HETATM    3  C11 UNL     1      -4.748  50.209 -21.378  1.00  0.00     0.011 C 
HETATM    4  C12 UNL     1      -4.545  50.149 -22.901  1.00  0.00    -0.032 C 
HETATM    5  C13 UNL     1      -5.770  50.892 -23.545  1.00  0.00     0.016 C 
HETATM    6  C14 UNL     1      -3.224  50.757 -23.448  1.00  0.00     0.004 C 
HETATM    7  C15 UNL     1      -3.039  52.244 -23.096  1.00  0.00     0.007 C 
HETATM    8  C16 UNL     1      -1.875  52.943 -23.813  1.00  0.00     0.007 C 
HETATM    9  C17 UNL     1      -1.046  52.054 -24.759  1.00  0.00     0.010 C 
HETATM   10  C18 UNL     1       0.076  52.820 -25.558  1.00  0.00     0.018 C 
HETATM   11  C19 UNL     1       1.430  52.086 -25.429  1.00  0.00     0.023 C 
HETATM   12  C20 UNL     1       0.326  54.260 -25.060  1.00  0.00     0.023 C 
HETATM   13  C21 UNL     1      -0.266  52.875 -27.055  1.00  0.00     0.135 C 
HETATM   14  O4  UNL     1      -0.155  53.912 -27.715  1.00  0.00    -0.297 OA
HETATM   15  C22 UNL     1      -0.652  51.591 -27.755  1.00  0.00     0.080 C 
HETATM   16  C23 UNL     1      -1.188  50.537 -26.798  1.00  0.00     0.018 C 
HETATM   17  C24 UNL     1      -1.950  51.195 -25.670  1.00  0.00    -0.026 A 
HETATM   18  C25 UNL     1      -3.389  51.566 -25.971  1.00  0.00     0.021 A 
HETATM   19  C26 UNL     1      -3.104  50.465 -24.962  1.00  0.00    -0.027 A 
HETATM   20  C27 UNL     1      -3.402  49.015 -25.381  1.00  0.00     0.011 C 
HETATM   21  C28 UNL     1      -4.585  48.347 -24.656  1.00  0.00     0.011 C 
HETATM   22  C29 UNL     1      -4.535  48.591 -23.141  1.00  0.00    -0.032 C 
HETATM   23  C30 UNL     1      -3.284  47.854 -22.575  1.00  0.00     0.016 C 
ENDROOT
BRANCH   1  24
HETATM   24  C2  UNL     1      -6.062  46.638 -22.132  1.00  0.00    -0.014 C 
HETATM   25  C1  UNL     1      -5.965  46.127 -20.690  1.00  0.00     0.010 C 
BRANCH  24  26
HETATM   26  C3  UNL     1      -7.423  46.194 -22.740  1.00  0.00     0.008 C 
BRANCH  26  27
HETATM   27  C4  UNL     1      -7.570  46.401 -24.252  1.00  0.00     0.028 C 
BRANCH  27  28
HETATM   28  C5  UNL     1      -8.577  47.452 -24.642  1.00  0.00    -0.011 C 
HETATM   29  C6  UNL     1      -8.924  47.865 -25.883  1.00  0.00     0.035 C 
BRANCH  29  30
HETATM   30  C7  UNL     1      -8.352  47.393 -27.194  1.00  0.00     0.209 C 
BRANCH  30  31
HETATM   31  O1  UNL     1      -7.838  48.474 -27.972  1.00  0.00    -0.396 OA
HETATM   32  H12 UNL     1      -8.519  49.172 -27.967  1.00  0.00     0.209 HD
ENDBRANCH  30  31
ENDBRANCH  29  30
BRANCH  29  33
HETATM   33  C8  UNL     1     -10.002  48.877 -26.041  1.00  0.00     0.173 C 
HETATM   34  O2  UNL     1     -11.189  48.640 -26.203  1.00  0.00    -0.646 OA
BRANCH  33  35
HETATM   35  O3  UNL     1      -9.553  50.148 -26.037  1.00  0.00    -0.773 OA
HETATM   36  H13 UNL     1     -10.367  50.682 -26.149  1.00  0.00     0.167 HD
ENDBRANCH  33  35
ENDBRANCH  29  33
ENDBRANCH  27  28
ENDBRANCH  26  27
ENDBRANCH  24  26
ENDBRANCH   1  24
TORSDOF 8
ENDMDL
