MODEL 1
REMARK minimizedAffinity -9.91051292
REMARK  5 active torsions:
REMARK  status: ('A' for Active; 'I' for Inactive)
REMARK    1  A    between atoms: C5_5  and  C6_6 
REMARK    2  A    between atoms: C6_6  and  C7_8 
REMARK    3  A    between atoms: C7_8  and  O2_9 
REMARK    4  A    between atoms: O2_9  and  C8_10 
REMARK    5  A    between atoms: C14_17  and  C15_18 
ROOT
HETATM    1  C8  UNL     1      -3.069  50.289 -27.590  1.00  0.00     0.093 A 
HETATM    2  C9  UNL     1      -2.411  51.495 -27.827  1.00  0.00     0.076 A 
HETATM    3  C10 UNL     1      -1.672  52.092 -26.802  1.00  0.00     0.093 A 
HETATM    4  C11 UNL     1      -1.558  51.526 -25.535  1.00  0.00     0.011 A 
HETATM    5  C12 UNL     1      -2.219  50.318 -25.297  1.00  0.00     0.042 A 
HETATM    6  C13 UNL     1      -2.964  49.707 -26.314  1.00  0.00     0.068 A 
HETATM    7 CL1  UNL     1      -3.760  48.216 -25.941  1.00  0.00    -0.081 Cl
HETATM    8  C14 UNL     1      -0.757  52.211 -24.509  1.00  0.00    -0.007 A 
HETATM    9  C21 UNL     1      -0.167  53.369 -24.841  1.00  0.00     0.095 A 
HETATM   10  C22 UNL     1      -0.284  53.986 -26.171  1.00  0.00     0.289 A 
HETATM   11  O3  UNL     1       0.267  55.053 -26.417  1.00  0.00    -0.260 OA
HETATM   12  O4  UNL     1      -1.039  53.311 -27.114  1.00  0.00    -0.275 OA
ENDROOT
BRANCH   1  13
HETATM   13  O2  UNL     1      -3.816  49.609 -28.515  1.00  0.00    -0.342 OA
BRANCH  13  14
HETATM   14  C7  UNL     1      -4.538  48.456 -28.119  1.00  0.00     0.254 C 
BRANCH  14  15
HETATM   15  C6  UNL     1      -5.671  48.019 -29.057  1.00  0.00     0.155 C 
HETATM   16  O1  UNL     1      -6.856  48.262 -28.825  1.00  0.00    -0.295 OA
BRANCH  15  17
HETATM   17  C5  UNL     1      -5.243  47.266 -30.311  1.00  0.00     0.062 C 
HETATM   18  C4  UNL     1      -5.180  48.225 -31.506  1.00  0.00     0.049 C 
HETATM   19  C2  UNL     1      -5.248  47.500 -32.868  1.00  0.00     0.054 C 
HETATM   20  C1  UNL     1      -4.203  48.099 -33.822  1.00  0.00     0.045 C 
HETATM   21  C3  UNL     1      -6.628  47.639 -33.529  1.00  0.00     0.045 C 
HETATM   22  O5  UNL     1      -4.887  46.124 -32.706  1.00  0.00    -0.381 OA
HETATM   23  C24 UNL     1      -5.747  45.356 -31.866  1.00  0.00     0.169 C 
HETATM   24  C23 UNL     1      -6.177  46.096 -30.606  1.00  0.00     0.038 C 
ENDBRANCH  15  17
ENDBRANCH  14  15
ENDBRANCH  13  14
ENDBRANCH   1  13
BRANCH   8  25
HETATM   25  C15 UNL     1      -0.528  51.733 -23.133  1.00  0.00    -0.025 A 
HETATM   26  C16 UNL     1      -1.249  50.636 -22.640  1.00  0.00     0.012 A 
HETATM   27  C17 UNL     1      -1.034  50.186 -21.337  1.00  0.00     0.001 A 
HETATM   28  C18 UNL     1      -0.102  50.825 -20.521  1.00  0.00     0.000 A 
HETATM   29  C19 UNL     1       0.619  51.916 -21.006  1.00  0.00     0.001 A 
HETATM   30  C20 UNL     1       0.407  52.370 -22.309  1.00  0.00     0.012 A 
ENDBRANCH   8  25
TORSDOF 5
ENDMDL
