MODEL 1
REMARK minimizedAffinity -7.67046022
REMARK CNNscore 0.417273641
REMARK CNNaffinity 5.70317268
REMARK  6 active torsions:
REMARK  status: ('A' for Active; 'I' for Inactive)
REMARK    1  A    between atoms: C2_2  and  N1_3 
REMARK    2  A    between atoms: N1_3  and  C3_4 
REMARK    3  A    between atoms: N1_3  and  C22_25 
REMARK    4  A    between atoms: C3_4  and  C4_5 
REMARK    5  A    between atoms: C5_6  and  C6_7 
REMARK    6  A    between atoms: C9_11  and  C10_12 
ROOT
HETATM    1  C6  UNL     1       6.257  66.886 -37.705  1.00  0.00    -0.033 C 
HETATM    2  C7  UNL     1       5.066  66.412 -37.179  1.00  0.00     0.036 C 
HETATM    3  C8  UNL     1       3.859  66.603 -37.869  1.00  0.00     0.043 C 
HETATM    4 CL1  UNL     1       2.445  66.127 -36.967  1.00  0.00    -0.084 Cl
HETATM    5  C9  UNL     1       3.788  67.222 -39.154  1.00  0.00    -0.010 C 
HETATM    6  C20 UNL     1       5.002  67.784 -39.604  1.00  0.00     0.043 C 
HETATM    7 CL2  UNL     1       5.175  68.873 -40.934  1.00  0.00    -0.084 Cl
HETATM    8  C21 UNL     1       6.212  67.580 -38.910  1.00  0.00     0.036 C 
ENDROOT
BRANCH   1   9
HETATM    9  C5  UNL     1       7.513  66.667 -36.986  1.00  0.00     0.009 C 
HETATM   10  C4  UNL     1       7.866  65.538 -36.350  1.00  0.00    -0.007 C 
BRANCH  10  11
HETATM   11  C3  UNL     1       7.109  64.238 -36.285  1.00  0.00     0.144 C 
BRANCH  11  12
HETATM   12  N1  UNL     1       7.365  63.488 -35.048  1.00  0.00    -0.405 N 
BRANCH  12  13
HETATM   13  C2  UNL     1       8.697  63.773 -34.502  1.00  0.00     0.113 C 
HETATM   14  C1  UNL     1       9.491  62.585 -33.974  1.00  0.00     0.026 C 
ENDBRANCH  12  13
BRANCH  12  15
HETATM   15  C22 UNL     1       6.227  63.387 -34.108  1.00  0.00     0.079 C 
HETATM   16  C23 UNL     1       5.098  62.408 -34.481  1.00  0.00     0.025 C 
HETATM   17  C24 UNL     1       4.096  62.200 -33.336  1.00  0.00     0.002 C 
HETATM   18  C25 UNL     1       4.147  63.278 -32.257  1.00  0.00     0.000 C 
HETATM   19  C26 UNL     1       4.358  64.659 -32.855  1.00  0.00     0.002 C 
HETATM   20  C27 UNL     1       5.623  64.757 -33.717  1.00  0.00     0.025 C 
ENDBRANCH  12  15
ENDBRANCH  11  12
ENDBRANCH  10  11
ENDBRANCH   1   9
BRANCH   5  21
HETATM   21  C10 UNL     1       2.422  67.253 -39.871  1.00  0.00     0.030 C 
HETATM   22  C11 UNL     1       1.053  67.156 -39.124  1.00  0.00    -0.005 C 
HETATM   23  C12 UNL     1       0.614  68.494 -38.483  1.00  0.00     0.010 C 
HETATM   24  C16 UNL     1      -0.032  66.782 -40.171  1.00  0.00     0.010 C 
HETATM   25  C13 UNL     1       0.504  69.596 -39.539  1.00  0.00    -0.013 C 
HETATM   26  C14 UNL     1      -0.548  69.200 -40.582  1.00  0.00     0.009 C 
HETATM   27  C19 UNL     1       1.877  69.751 -40.201  1.00  0.00     0.010 C 
HETATM   28  C15 UNL     1      -0.146  67.875 -41.247  1.00  0.00    -0.013 C 
HETATM   29  C17 UNL     1       1.214  68.066 -41.936  1.00  0.00     0.010 C 
HETATM   30  C18 UNL     1       2.289  68.441 -40.895  1.00  0.00    -0.005 C 
ENDBRANCH   5  21
TORSDOF 6
ENDMDL
