MODEL 1
REMARK minimizedAffinity -9.68996525
REMARK CNNscore 0.637030065
REMARK CNNaffinity 7.2898097
REMARK  12 active torsions:
REMARK  status: ('A' for Active; 'I' for Inactive)
REMARK    1  A    between atoms: C2_2  and  C4_4 
REMARK    2  A    between atoms: C4_4  and  C6_6 
REMARK    3  A    between atoms: C7_8  and  C8_9 
REMARK    4  A    between atoms: C8_9  and  O2_11 
REMARK    5  A    between atoms: C8_9  and  C10_12 
REMARK    6  A    between atoms: C13_15  and  O3_16 
REMARK    7  A    between atoms: C19_23  and  O5_24 
REMARK    8  A    between atoms: C20_25  and  O6_26 
REMARK    9  A    between atoms: C27_33  and  C28_34 
REMARK   10  A    between atoms: C28_34  and  C29_35 
REMARK   11  A    between atoms: C29_35  and  C30_36 
REMARK   12  A    between atoms: C34_40  and  O7_41 
ROOT
HETATM    1  C10 UNL     1      -1.209   7.112  13.043  1.00  0.00     0.034 C 
HETATM    2  C11 UNL     1      -1.424   8.375  12.182  1.00  0.00     0.012 C 
HETATM    3  C12 UNL     1      -2.782   8.878  12.640  1.00  0.00     0.044 C 
HETATM    4  C13 UNL     1      -2.683   8.800  14.173  1.00  0.00     0.090 C 
HETATM    5  C14 UNL     1      -1.939   9.987  14.805  1.00  0.00    -0.037 C 
HETATM    6  C15 UNL     1      -1.617  11.128  14.159  1.00  0.00     0.057 C 
HETATM    7  C16 UNL     1      -0.871  12.228  14.817  1.00  0.00     0.154 C 
HETATM    8  O4  UNL     1      -0.822  13.327  14.264  1.00  0.00    -0.293 OA
HETATM    9  C17 UNL     1      -0.195  11.918  16.140  1.00  0.00     0.071 C 
HETATM   10  C18 UNL     1       0.307  13.191  16.830  1.00  0.00     0.047 C 
HETATM   11  C19 UNL     1       0.977  12.884  18.174  1.00  0.00     0.147 C 
HETATM   12  C20 UNL     1       0.104  12.032  19.106  1.00  0.00     0.147 C 
HETATM   13  C21 UNL     1      -0.450  10.795  18.388  1.00  0.00     0.044 C 
HETATM   14  C22 UNL     1      -1.157  11.085  17.027  1.00  0.00    -0.023 C 
HETATM   15  C23 UNL     1      -2.483  11.853  17.309  1.00  0.00     0.016 C 
HETATM   16  C24 UNL     1      -1.558   9.763  16.266  1.00  0.00     0.027 C 
HETATM   17  C25 UNL     1      -0.504   8.657  16.195  1.00  0.00     0.011 C 
HETATM   18  C26 UNL     1      -1.155   7.355  15.728  1.00  0.00     0.014 C 
HETATM   19  C27 UNL     1      -1.990   7.381  14.408  1.00  0.00     0.002 C 
ENDROOT
BRANCH   1  20
HETATM   20  C8  UNL     1       0.215   6.482  12.915  1.00  0.00     0.087 C 
HETATM   21  C9  UNL     1       1.301   7.570  12.951  1.00  0.00     0.049 C 
BRANCH  20  22
HETATM   22  C7  UNL     1       0.437   5.611  11.699  1.00  0.00     0.185 A 
HETATM   23  C6  UNL     1       0.937   6.029  10.313  1.00  0.00     0.158 A 
HETATM   24  O1  UNL     1       1.791   5.402  11.280  1.00  0.00    -0.372 OA
BRANCH  23  25
HETATM   25  C4  UNL     1       1.413   7.390   9.869  1.00  0.00     0.017 C 
HETATM   26  C5  UNL     1       0.278   8.142   9.163  1.00  0.00     0.013 C 
BRANCH  25  27
HETATM   27  C2  UNL     1       2.698   7.268   8.993  1.00  0.00    -0.016 C 
HETATM   28  C1  UNL     1       2.724   6.035   8.080  1.00  0.00     0.010 C 
HETATM   29  C3  UNL     1       2.919   8.529   8.148  1.00  0.00     0.010 C 
ENDBRANCH  25  27
ENDBRANCH  23  25
ENDBRANCH  20  22
BRANCH  20  30
HETATM   30  O2  UNL     1       0.434   5.715  14.111  1.00  0.00    -0.387 OA
HETATM   31  H17 UNL     1       0.267   6.282  14.881  1.00  0.00     0.210 HD
ENDBRANCH  20  30
ENDBRANCH   1  20
BRANCH  19  32
HETATM   32  C28 UNL     1      -3.047   6.211  14.638  1.00  0.00     0.018 C 
BRANCH  32  33
HETATM   33  C29 UNL     1      -4.541   6.440  14.359  1.00  0.00     0.039 C 
BRANCH  33  34
HETATM   34  C30 UNL     1      -5.126   5.264  13.603  1.00  0.00    -0.056 A 
HETATM   35  C31 UNL     1      -4.354   4.545  12.678  1.00  0.00     0.007 A 
HETATM   36  C32 UNL     1      -4.905   3.460  11.995  1.00  0.00     0.003 A 
HETATM   37  C33 UNL     1      -6.225   3.071  12.237  1.00  0.00     0.036 A 
HETATM   38  C34 UNL     1      -6.985   3.777  13.164  1.00  0.00     0.066 A 
HETATM   39  C35 UNL     1      -6.449   4.868  13.844  1.00  0.00     0.043 A 
BRANCH  38  40
HETATM   40  O7  UNL     1      -8.276   3.430  13.436  1.00  0.00    -0.361 OA
HETATM   41  H49 UNL     1      -8.477   2.603  12.973  1.00  0.00     0.217 HD
ENDBRANCH  38  40
ENDBRANCH  33  34
ENDBRANCH  32  33
ENDBRANCH  19  32
BRANCH   4  42
HETATM   42  O3  UNL     1      -3.994   8.823  14.727  1.00  0.00    -0.384 OA
HETATM   43  H23 UNL     1      -4.293   9.744  14.755  1.00  0.00     0.211 HD
ENDBRANCH   4  42
BRANCH  12  44
HETATM   44  O6  UNL     1      -0.963  12.816  19.643  1.00  0.00    -0.393 OA
HETATM   45  H31 UNL     1      -0.554  13.425  20.287  1.00  0.00     0.210 HD
ENDBRANCH  12  44
BRANCH  11  46
HETATM   46  O5  UNL     1       1.320  14.109  18.824  1.00  0.00    -0.393 OA
HETATM   47  H29 UNL     1       0.515  14.662  18.818  1.00  0.00     0.210 HD
ENDBRANCH  11  46
TORSDOF 12
ENDMDL
