MODEL 1
REMARK minimizedAffinity -6.91799688
REMARK CNNscore 0.671961606
REMARK CNNaffinity 7.34725523
REMARK  6 active torsions:
REMARK  status: ('A' for Active; 'I' for Inactive)
REMARK    1  A    between atoms: C2_2  and  C30_31 
REMARK    2  A    between atoms: C3_3  and  C4_4 
REMARK    3  A    between atoms: C4_4  and  C5_5 
REMARK    4  A    between atoms: C5_5  and  C6_6 
REMARK    5  A    between atoms: C6_6  and  C8_8 
REMARK    6  A    between atoms: C30_31  and  O2_32 
ROOT
HETATM    1  C8  UNL     1     -10.338   7.591  14.543  1.00  0.00    -0.002 C 
HETATM    2  C9  UNL     1     -11.606   6.751  14.172  1.00  0.00     0.007 C 
HETATM    3  C10 UNL     1     -12.755   7.743  13.883  1.00  0.00     0.015 C 
HETATM    4  C11 UNL     1     -12.051   9.100  13.736  1.00  0.00    -0.013 C 
HETATM    5  C12 UNL     1     -11.457   9.133  12.279  1.00  0.00     0.021 C 
HETATM    6  C13 UNL     1     -12.877  10.388  13.866  1.00  0.00    -0.070 C 
HETATM    7  C14 UNL     1     -13.997  10.560  13.131  1.00  0.00    -0.022 C 
HETATM    8  C15 UNL     1     -14.594  11.905  12.813  1.00  0.00     0.034 C 
HETATM    9  C16 UNL     1     -13.553  13.017  13.062  1.00  0.00     0.013 C 
HETATM   10  C17 UNL     1     -13.943  14.448  12.575  1.00  0.00     0.018 C 
HETATM   11  C18 UNL     1     -15.156  15.062  13.282  1.00  0.00     0.023 C 
HETATM   12  C19 UNL     1     -14.224  14.431  11.058  1.00  0.00     0.023 C 
HETATM   13  C20 UNL     1     -12.739  15.384  12.807  1.00  0.00     0.135 C 
HETATM   14  O1  UNL     1     -12.677  16.504  12.294  1.00  0.00    -0.297 OA
HETATM   15  C21 UNL     1     -11.608  14.880  13.681  1.00  0.00     0.080 C 
HETATM   16  C22 UNL     1     -12.183  14.171  14.896  1.00  0.00     0.017 C 
HETATM   17  C23 UNL     1     -13.016  12.914  14.529  1.00  0.00    -0.031 C 
HETATM   18  C24 UNL     1     -14.160  12.831  15.590  1.00  0.00     0.016 C 
HETATM   19  C25 UNL     1     -12.221  11.547  14.654  1.00  0.00     0.024 C 
HETATM   20  C26 UNL     1     -10.709  11.555  14.358  1.00  0.00     0.010 C 
HETATM   21  C27 UNL     1     -10.008  10.215  14.731  1.00  0.00     0.011 C 
HETATM   22  C28 UNL     1     -10.958   8.993  14.861  1.00  0.00    -0.029 C 
HETATM   23  C29 UNL     1     -11.555   8.917  16.307  1.00  0.00     0.016 C 
ENDROOT
BRANCH   1  24
HETATM   24  C6  UNL     1      -9.436   6.869  15.594  1.00  0.00    -0.014 C 
HETATM   25  C7  UNL     1      -8.805   7.855  16.581  1.00  0.00     0.010 C 
BRANCH  24  26
HETATM   26  C5  UNL     1      -8.331   6.055  14.863  1.00  0.00     0.008 C 
BRANCH  26  27
HETATM   27  C4  UNL     1      -8.498   5.881  13.348  1.00  0.00     0.028 C 
BRANCH  27  28
HETATM   28  C3  UNL     1      -8.204   4.486  12.869  1.00  0.00    -0.022 C 
HETATM   29  C2  UNL     1      -6.994   3.904  12.732  1.00  0.00    -0.064 C 
HETATM   30  C1  UNL     1      -5.682   4.585  13.017  1.00  0.00     0.045 C 
BRANCH  29  31
HETATM   31  C30 UNL     1      -6.874   2.475  12.271  1.00  0.00     0.197 C 
BRANCH  31  32
HETATM   32  O2  UNL     1      -8.076   1.790  12.585  1.00  0.00    -0.397 OA
HETATM   33  H48 UNL     1      -7.951   0.867  12.306  1.00  0.00     0.209 HD
ENDBRANCH  31  32
ENDBRANCH  29  31
ENDBRANCH  27  28
ENDBRANCH  26  27
ENDBRANCH  24  26
ENDBRANCH   1  24
TORSDOF 6
ENDMDL
