MODEL 1
REMARK minimizedAffinity -9.07460594
REMARK  6 active torsions:
REMARK  status: ('A' for Active; 'I' for Inactive)
REMARK    1  A    between atoms: C2_2  and  C30_31 
REMARK    2  A    between atoms: C3_3  and  C4_4 
REMARK    3  A    between atoms: C4_4  and  C5_5 
REMARK    4  A    between atoms: C5_5  and  C6_6 
REMARK    5  A    between atoms: C6_6  and  C8_8 
REMARK    6  A    between atoms: C30_31  and  O3_33 
ROOT
HETATM    1  C8  UNL     1      -1.107   5.838  11.924  1.00  0.00    -0.002 C 
HETATM    2  C9  UNL     1       0.437   5.884  12.028  1.00  0.00     0.007 C 
HETATM    3  C10 UNL     1       0.782   7.145  12.864  1.00  0.00     0.015 C 
HETATM    4  C11 UNL     1      -0.545   7.933  12.964  1.00  0.00    -0.013 C 
HETATM    5  C12 UNL     1      -0.649   8.767  11.646  1.00  0.00     0.021 C 
HETATM    6  C13 UNL     1      -0.817   8.894  14.120  1.00  0.00    -0.070 C 
HETATM    7  C14 UNL     1       0.071   9.163  15.094  1.00  0.00    -0.022 C 
HETATM    8  C15 UNL     1      -0.244   9.962  16.325  1.00  0.00     0.034 C 
HETATM    9  C16 UNL     1      -1.765  10.131  16.552  1.00  0.00     0.013 C 
HETATM   10  C17 UNL     1      -2.174  10.928  17.849  1.00  0.00     0.018 C 
HETATM   11  C18 UNL     1      -2.973   9.999  18.795  1.00  0.00     0.023 C 
HETATM   12  C19 UNL     1      -0.963  11.450  18.653  1.00  0.00     0.023 C 
HETATM   13  C20 UNL     1      -3.098  12.122  17.546  1.00  0.00     0.135 C 
HETATM   14  O1  UNL     1      -3.020  13.185  18.165  1.00  0.00    -0.297 OA
HETATM   15  C21 UNL     1      -4.202  11.950  16.525  1.00  0.00     0.080 C 
HETATM   16  C22 UNL     1      -3.950  10.830  15.528  1.00  0.00     0.017 C 
HETATM   17  C23 UNL     1      -2.455  10.596  15.226  1.00  0.00    -0.031 C 
HETATM   18  C24 UNL     1      -1.832  11.916  14.675  1.00  0.00     0.016 C 
HETATM   19  C25 UNL     1      -2.242   9.488  14.112  1.00  0.00     0.024 C 
HETATM   20  C26 UNL     1      -3.298   8.349  14.088  1.00  0.00     0.010 C 
HETATM   21  C27 UNL     1      -3.017   7.256  13.028  1.00  0.00     0.011 C 
HETATM   22  C28 UNL     1      -1.569   6.734  13.107  1.00  0.00    -0.029 C 
HETATM   23  C29 UNL     1      -1.428   5.988  14.473  1.00  0.00     0.016 C 
ENDROOT
BRANCH   1  24
HETATM   24  C6  UNL     1      -1.756   4.440  11.726  1.00  0.00    -0.014 C 
HETATM   25  C7  UNL     1      -0.646   3.369  11.790  1.00  0.00     0.010 C 
BRANCH  24  26
HETATM   26  C5  UNL     1      -2.874   4.056  12.721  1.00  0.00     0.008 C 
BRANCH  26  27
HETATM   27  C4  UNL     1      -4.141   3.523  12.034  1.00  0.00     0.028 C 
BRANCH  27  28
HETATM   28  C3  UNL     1      -5.416   4.107  12.583  1.00  0.00    -0.013 C 
HETATM   29  C2  UNL     1      -6.626   3.519  12.663  1.00  0.00     0.008 C 
HETATM   30  C1  UNL     1      -7.812   4.215  13.267  1.00  0.00     0.055 C 
BRANCH  29  31
HETATM   31  C30 UNL     1      -6.864   2.170  12.104  1.00  0.00     0.171 C 
HETATM   32  O2  UNL     1      -6.201   1.597  11.260  1.00  0.00    -0.646 OA
BRANCH  31  33
HETATM   33  O3  UNL     1      -7.952   1.594  12.642  1.00  0.00    -0.773 OA
HETATM   34  H46 UNL     1      -7.987   0.721  12.201  1.00  0.00     0.167 HD
ENDBRANCH  31  33
ENDBRANCH  29  31
ENDBRANCH  27  28
ENDBRANCH  26  27
ENDBRANCH  24  26
ENDBRANCH   1  24
TORSDOF 6
ENDMDL
