MODEL 1
REMARK minimizedAffinity -8.7683239
REMARK CNNscore 0.66437602
REMARK CNNaffinity 7.61910772
REMARK  15 active torsions:
REMARK  status: ('A' for Active; 'I' for Inactive)
REMARK    1  A    between atoms: C19_20  and  O2_21 
REMARK    2  A    between atoms: C19_20  and  C20_22 
REMARK    3  A    between atoms: C20_22  and  C21_24 
REMARK    4  A    between atoms: C21_24  and  O4_25 
REMARK    5  A    between atoms: O4_25  and  C22_26 
REMARK    6  A    between atoms: C22_26  and  C23_28 
REMARK    7  A    between atoms: C23_28  and  C24_29 
REMARK    8  A    between atoms: C24_29  and  C25_30 
REMARK       I    between atoms: C25_30  and  N1_32 
REMARK    9  A    between atoms: N1_32  and  C26_33 
REMARK   10  A    between atoms: C26_33  and  C27_34 
REMARK   11  A    between atoms: C27_34  and  C28_35 
REMARK   12  A    between atoms: C28_35  and  C29_36 
REMARK   13  A    between atoms: C29_36  and  C30_37 
REMARK   14  A    between atoms: C30_37  and  C31_38 
REMARK   15  A    between atoms: C31_38  and  O8_40 
ROOT
HETATM    1  C1  UNL     1       0.107   8.239  10.041  1.00  0.00     0.020 C 
HETATM    2  C2  UNL     1       0.894   7.811  11.306  1.00  0.00    -0.016 C 
HETATM    3  C3  UNL     1       2.070   8.826  11.422  1.00  0.00     0.022 C 
HETATM    4  C4  UNL     1       3.210   8.343  12.303  1.00  0.00     0.084 C 
HETATM    5  C5  UNL     1       3.730   7.037  11.759  1.00  0.00     0.149 C 
HETATM    6  O1  UNL     1       4.924   6.745  11.765  1.00  0.00    -0.293 OA
HETATM    7  C6  UNL     1       2.732   6.047  11.290  1.00  0.00     0.053 C 
HETATM    8  C7  UNL     1       1.439   6.385  11.141  1.00  0.00    -0.068 C 
HETATM    9  C8  UNL     1       0.399   5.311  10.942  1.00  0.00     0.035 C 
HETATM   10  C9  UNL     1      -0.539   5.289  12.150  1.00  0.00     0.010 C 
HETATM   11  C10 UNL     1      -1.141   6.673  12.456  1.00  0.00    -0.004 C 
HETATM   12  C11 UNL     1      -0.027   7.773  12.580  1.00  0.00     0.002 C 
HETATM   13  C12 UNL     1      -0.630   9.143  12.980  1.00  0.00     0.007 C 
HETATM   14  C13 UNL     1      -1.559   9.070  14.206  1.00  0.00     0.013 C 
HETATM   15  C14 UNL     1      -2.666   8.014  14.037  1.00  0.00    -0.002 C 
HETATM   16  C15 UNL     1      -3.636   8.455  12.906  1.00  0.00     0.019 C 
HETATM   17  C16 UNL     1      -1.964   6.663  13.751  1.00  0.00     0.002 C 
HETATM   18  C17 UNL     1      -3.085   5.640  13.888  1.00  0.00     0.009 C 
HETATM   19  C18 UNL     1      -3.970   6.193  15.021  1.00  0.00     0.047 C 
HETATM   20  C19 UNL     1      -3.472   7.635  15.318  1.00  0.00     0.128 C 
ENDROOT
BRANCH  20  21
HETATM   21  O2  UNL     1      -2.590   7.560  16.443  1.00  0.00    -0.381 OA
HETATM   22  H27 UNL     1      -3.116   7.268  17.216  1.00  0.00     0.211 HD
ENDBRANCH  20  21
BRANCH  20  23
HETATM   23  C20 UNL     1      -4.623   8.609  15.647  1.00  0.00     0.185 C 
HETATM   24  O3  UNL     1      -4.482   9.561  16.418  1.00  0.00    -0.292 OA
BRANCH  23  25
HETATM   25  C21 UNL     1      -5.973   8.330  14.986  1.00  0.00     0.260 C 
BRANCH  25  26
HETATM   26  O4  UNL     1      -6.847   7.593  15.843  1.00  0.00    -0.314 OA
BRANCH  26  27
HETATM   27  C22 UNL     1      -7.740   6.814  15.169  1.00  0.00     0.259 C 
HETATM   28  O5  UNL     1      -8.908   6.651  15.513  1.00  0.00    -0.265 OA
BRANCH  27  29
HETATM   29  C23 UNL     1      -7.107   6.086  14.003  1.00  0.00     0.120 C 
BRANCH  29  30
HETATM   30  C24 UNL     1      -8.066   5.212  13.203  1.00  0.00     0.112 C 
BRANCH  30  31
HETATM   31  C25 UNL     1      -7.531   3.806  13.022  1.00  0.00     0.217 C 
HETATM   32  O6  UNL     1      -7.896   2.852  13.697  1.00  0.00    -0.274 OA
HETATM   33  N1  UNL     1      -6.578   3.714  12.029  1.00  0.00    -0.361 N 
HETATM   34  H34 UNL     1      -6.542   4.461  11.345  1.00  0.00     0.162 HD
BRANCH  33  35
HETATM   35  C26 UNL     1      -6.030   2.423  11.663  1.00  0.00     0.122 C 
BRANCH  35  36
HETATM   36  C27 UNL     1      -5.066   2.542  10.487  1.00  0.00     0.020 C 
BRANCH  36  37
HETATM   37  C28 UNL     1      -4.004   3.627  10.678  1.00  0.00     0.002 C 
BRANCH  37  38
HETATM   38  C29 UNL     1      -2.549   3.170  10.538  1.00  0.00     0.010 C 
BRANCH  38  39
HETATM   39  C30 UNL     1      -2.262   1.833  11.222  1.00  0.00     0.110 C 
BRANCH  39  40
HETATM   40  C31 UNL     1      -0.998   1.204  10.701  1.00  0.00     0.139 C 
HETATM   41  O7  UNL     1      -0.897   0.243   9.959  1.00  0.00    -0.650 OA
BRANCH  40  42
HETATM   42  O8  UNL     1       0.099   1.846  11.144  1.00  0.00    -0.776 OA
HETATM   43  H45 UNL     1       0.842   1.342  10.748  1.00  0.00     0.167 HD
ENDBRANCH  40  42
ENDBRANCH  39  40
ENDBRANCH  38  39
ENDBRANCH  37  38
ENDBRANCH  36  37
ENDBRANCH  35  36
ENDBRANCH  33  35
ENDBRANCH  30  31
ENDBRANCH  29  30
ENDBRANCH  27  29
ENDBRANCH  26  27
ENDBRANCH  25  26
ENDBRANCH  23  25
ENDBRANCH  20  23
TORSDOF 15
ENDMDL
