MODEL 1
REMARK minimizedAffinity -8.15799522
REMARK CNNscore 0.387485683
REMARK CNNaffinity 6.91081238
REMARK  12 active torsions:
REMARK  status: ('A' for Active; 'I' for Inactive)
REMARK    1  A    between atoms: C4_4  and  C5_5 
REMARK    2  A    between atoms: C5_5  and  O1_6 
REMARK    3  A    between atoms: C5_5  and  C6_7 
REMARK    4  A    between atoms: C6_7  and  C7_8 
REMARK    5  A    between atoms: C9_11  and  C10_12 
REMARK    6  A    between atoms: C18_20  and  O3_21 
REMARK    7  A    between atoms: O3_21  and  C19_22 
REMARK    8  A    between atoms: C20_24  and  C21_25 
REMARK    9  A    between atoms: C21_25  and  O5_26 
REMARK   10  A    between atoms: C22_27  and  O6_28 
REMARK   11  A    between atoms: C23_29  and  O7_30 
REMARK   12  A    between atoms: C24_31  and  O8_32 
ROOT
HETATM    1  C10 UNL     1      -4.177   6.917  13.781  1.00  0.00     0.029 C 
HETATM    2  C11 UNL     1      -4.523   8.187  12.968  1.00  0.00     0.009 C 
HETATM    3  C12 UNL     1      -3.631   9.402  13.237  1.00  0.00     0.007 C 
HETATM    4  C13 UNL     1      -2.890   9.268  14.572  1.00  0.00     0.003 C 
HETATM    5  C14 UNL     1      -2.381  10.618  15.233  1.00  0.00    -0.035 C 
HETATM    6  C15 UNL     1      -1.345  11.335  14.343  1.00  0.00     0.016 C 
HETATM    7  C16 UNL     1      -3.587  11.590  15.418  1.00  0.00     0.012 C 
HETATM    8  C17 UNL     1      -3.300  12.791  16.319  1.00  0.00     0.034 C 
HETATM    9  C18 UNL     1      -2.777  12.387  17.697  1.00  0.00     0.133 C 
HETATM   10  C25 UNL     1      -1.526  11.451  17.620  1.00  0.00    -0.017 C 
HETATM   11  C26 UNL     1      -1.257  10.934  19.062  1.00  0.00     0.018 C 
HETATM   12  C27 UNL     1      -0.260  12.230  17.206  1.00  0.00     0.018 C 
HETATM   13  C28 UNL     1      -1.868  10.241  16.675  1.00  0.00     0.004 C 
HETATM   14  C29 UNL     1      -0.809   9.126  16.630  1.00  0.00     0.007 C 
HETATM   15  C30 UNL     1      -1.338   7.852  15.952  1.00  0.00     0.011 C 
HETATM   16  C31 UNL     1      -1.868   8.059  14.503  1.00  0.00    -0.029 C 
HETATM   17  C32 UNL     1      -0.626   8.372  13.631  1.00  0.00     0.016 C 
HETATM   18  C33 UNL     1      -2.603   6.728  13.911  1.00  0.00     0.004 C 
HETATM   19  C34 UNL     1      -2.266   5.431  14.670  1.00  0.00     0.190 C 
HETATM   20  O9  UNL     1      -2.606   4.355  13.794  1.00  0.00    -0.321 OA
HETATM   21  C35 UNL     1      -2.463   4.791  12.510  1.00  0.00     0.259 C 
HETATM   22  O10 UNL     1      -2.579   4.085  11.523  1.00  0.00    -0.265 OA
HETATM   23  C36 UNL     1      -2.108   6.251  12.515  1.00  0.00     0.124 C 
ENDROOT
BRANCH   9  24
HETATM   24  O3  UNL     1      -2.427  13.568  18.430  1.00  0.00    -0.352 OA
BRANCH  24  25
HETATM   25  C19 UNL     1      -3.317  13.887  19.500  1.00  0.00     0.292 C 
HETATM   26  O4  UNL     1      -4.671  13.967  19.045  1.00  0.00    -0.348 OA
HETATM   27  C20 UNL     1      -5.108  15.274  18.641  1.00  0.00     0.179 C 
HETATM   28  C22 UNL     1      -3.948  16.141  18.138  1.00  0.00     0.180 C 
HETATM   29  C23 UNL     1      -3.031  16.429  19.331  1.00  0.00     0.183 C 
HETATM   30  C24 UNL     1      -2.809  15.178  20.199  1.00  0.00     0.204 C 
BRANCH  27  31
HETATM   31  C21 UNL     1      -6.250  15.134  17.623  1.00  0.00     0.198 C 
BRANCH  31  32
HETATM   32  O5  UNL     1      -6.603  13.766  17.405  1.00  0.00    -0.398 OA
HETATM   33  H34 UNL     1      -7.345  13.770  16.773  1.00  0.00     0.209 HD
ENDBRANCH  31  32
ENDBRANCH  27  31
BRANCH  28  34
HETATM   34  O6  UNL     1      -4.386  17.385  17.575  1.00  0.00    -0.390 OA
HETATM   35  H36 UNL     1      -4.777  17.147  16.711  1.00  0.00     0.210 HD
ENDBRANCH  28  34
BRANCH  29  36
HETATM   36  O7  UNL     1      -1.784  16.956  18.854  1.00  0.00    -0.390 OA
HETATM   37  H38 UNL     1      -2.025  17.684  18.249  1.00  0.00     0.210 HD
ENDBRANCH  29  36
BRANCH  30  38
HETATM   38  O8  UNL     1      -3.505  15.364  21.450  1.00  0.00    -0.388 OA
HETATM   39  H40 UNL     1      -3.231  14.642  22.041  1.00  0.00     0.210 HD
ENDBRANCH  30  38
ENDBRANCH  24  25
ENDBRANCH   9  24
BRANCH   1  40
HETATM   40  C9  UNL     1      -4.898   6.835  15.119  1.00  0.00     0.162 A 
HETATM   41  C7  UNL     1      -6.417   6.651  15.277  1.00  0.00     0.087 A 
HETATM   42  C8  UNL     1      -6.887   6.032  16.559  1.00  0.00     0.049 C 
HETATM   43  O2  UNL     1      -5.779   7.922  15.441  1.00  0.00    -0.369 OA
BRANCH  41  44
HETATM   44  C6  UNL     1      -7.364   6.609  14.096  1.00  0.00     0.076 C 
BRANCH  44  45
HETATM   45  C5  UNL     1      -7.750   5.191  13.634  1.00  0.00     0.144 C 
BRANCH  45  46
HETATM   46  C4  UNL     1      -6.851   4.602  12.574  1.00  0.00     0.006 C 
HETATM   47  C2  UNL     1      -6.690   3.312  12.212  1.00  0.00    -0.089 C 
HETATM   48  C1  UNL     1      -5.707   2.933  11.135  1.00  0.00     0.042 C 
HETATM   49  C3  UNL     1      -7.448   2.146  12.790  1.00  0.00     0.042 C 
ENDBRANCH  45  46
BRANCH  45  50
HETATM   50  O1  UNL     1      -9.096   5.207  13.153  1.00  0.00    -0.392 OA
HETATM   51  H9  UNL     1      -9.231   4.375  12.668  1.00  0.00     0.210 HD
ENDBRANCH  45  50
ENDBRANCH  44  45
ENDBRANCH  41  44
ENDBRANCH   1  40
TORSDOF 12
ENDMDL
