MODEL 1
REMARK minimizedAffinity -10.038393
REMARK  8 active torsions:
REMARK  status: ('A' for Active; 'I' for Inactive)
REMARK    1  A    between atoms: C2_2  and  C3_3 
REMARK    2  A    between atoms: C2_2  and  C11_14 
REMARK    3  A    between atoms: C3_3  and  C4_4 
REMARK    4  A    between atoms: C4_4  and  C5_5 
REMARK       I    between atoms: C5_5  and  N1_7 
REMARK    5  A    between atoms: N1_7  and  C6_8 
REMARK    6  A    between atoms: C6_8  and  C7_9 
REMARK    7  A    between atoms: C16_19  and  O3_20 
REMARK    8  A    between atoms: C20_24  and  O4_25 
ROOT
HETATM    1  C11 UNL     1      -0.641  51.249 -20.891  1.00  0.00    -0.002 C 
HETATM    2  C12 UNL     1      -0.089  52.703 -20.774  1.00  0.00     0.006 C 
HETATM    3  C13 UNL     1       0.382  52.901 -19.329  1.00  0.00     0.006 C 
HETATM    4  C14 UNL     1       0.336  51.503 -18.735  1.00  0.00     0.001 C 
HETATM    5  C15 UNL     1       0.374  51.370 -17.202  1.00  0.00     0.024 C 
HETATM    6  C16 UNL     1       1.664  52.013 -16.636  1.00  0.00     0.123 C 
HETATM    7  C17 UNL     1       2.129  51.398 -15.310  1.00  0.00     0.037 C 
HETATM    8  C18 UNL     1       0.932  50.889 -14.499  1.00  0.00    -0.001 C 
HETATM    9  C19 UNL     1       1.303  50.608 -13.027  1.00  0.00     0.037 C 
HETATM   10  C20 UNL     1       1.976  49.265 -12.777  1.00  0.00     0.118 C 
HETATM   11  C21 UNL     1       1.183  48.121 -13.393  1.00  0.00     0.032 C 
HETATM   12  C22 UNL     1       0.935  48.343 -14.884  1.00  0.00     0.012 C 
HETATM   13  C23 UNL     1       0.231  49.689 -15.225  1.00  0.00    -0.036 C 
HETATM   14  C24 UNL     1      -1.231  49.630 -14.710  1.00  0.00     0.016 C 
HETATM   15  C25 UNL     1       0.292  49.874 -16.801  1.00  0.00     0.001 C 
HETATM   16  C26 UNL     1      -0.805  49.092 -17.568  1.00  0.00     0.007 C 
HETATM   17  C27 UNL     1      -0.821  49.354 -19.082  1.00  0.00     0.010 C 
HETATM   18  C28 UNL     1      -0.905  50.858 -19.401  1.00  0.00    -0.036 C 
HETATM   19  C29 UNL     1      -2.245  51.452 -18.902  1.00  0.00     0.016 C 
ENDROOT
BRANCH   1  20
HETATM   20  C2  UNL     1      -1.795  51.157 -21.936  1.00  0.00    -0.013 C 
HETATM   21  C1  UNL     1      -1.893  49.774 -22.583  1.00  0.00     0.010 C 
BRANCH  20  22
HETATM   22  C3  UNL     1      -1.616  52.258 -23.022  1.00  0.00     0.014 C 
BRANCH  22  23
HETATM   23  C4  UNL     1      -2.885  52.583 -23.817  1.00  0.00     0.103 C 
BRANCH  23  24
HETATM   24  C5  UNL     1      -2.811  52.255 -25.297  1.00  0.00     0.217 C 
HETATM   25  O1  UNL     1      -3.490  51.400 -25.851  1.00  0.00    -0.274 OA
HETATM   26  N1  UNL     1      -1.878  53.027 -25.960  1.00  0.00    -0.359 N 
HETATM   27  H9  UNL     1      -1.145  53.461 -25.411  1.00  0.00     0.162 HD
BRANCH  26  28
HETATM   28  C6  UNL     1      -1.557  52.774 -27.353  1.00  0.00     0.154 C 
BRANCH  28  29
HETATM   29  C7  UNL     1      -0.051  52.927 -27.601  1.00  0.00     0.139 C 
HETATM   30  C8  UNL     1       0.619  51.630 -28.021  1.00  0.00     0.035 C 
HETATM   31  C9  UNL     1       1.027  51.025 -26.701  1.00  0.00     0.029 C 
HETATM   32  C10 UNL     1       1.401  52.248 -25.893  1.00  0.00     0.168 C 
HETATM   33  O2  UNL     1       0.578  53.326 -26.361  1.00  0.00    -0.384 OA
ENDBRANCH  28  29
ENDBRANCH  26  28
ENDBRANCH  23  24
ENDBRANCH  22  23
ENDBRANCH  20  22
ENDBRANCH   1  20
BRANCH   6  34
HETATM   34  O3  UNL     1       1.410  53.407 -16.442  1.00  0.00    -0.395 OA
HETATM   35  H27 UNL     1       2.235  53.811 -16.122  1.00  0.00     0.210 HD
ENDBRANCH   6  34
BRANCH  10  36
HETATM   36  O4  UNL     1       3.297  49.283 -13.312  1.00  0.00    -0.396 OA
HETATM   37  H34 UNL     1       3.732  48.466 -13.013  1.00  0.00     0.210 HD
ENDBRANCH  10  36
TORSDOF 8
ENDMDL
