MODEL 1
REMARK minimizedAffinity -8.96617126
REMARK  12 active torsions:
REMARK  status: ('A' for Active; 'I' for Inactive)
REMARK    1  A    between atoms: C2_2  and  C3_3 
REMARK    2  A    between atoms: C2_2  and  C22_26 
REMARK    3  A    between atoms: C3_3  and  C4_4 
REMARK    4  A    between atoms: C4_4  and  C5_5 
REMARK    5  A    between atoms: C4_4  and  N1_18 
REMARK    6  A    between atoms: C5_5  and  C6_6 
REMARK    7  A    between atoms: C9_9  and  C10_10 
REMARK       I    between atoms: N1_18  and  C18_19 
REMARK    8  A    between atoms: C18_19  and  C19_21 
REMARK    9  A    between atoms: C19_21  and  C20_22 
REMARK   10  A    between atoms: C20_22  and  C21_23 
REMARK   11  A    between atoms: C21_23  and  O3_25 
REMARK   12  A    between atoms: C22_26  and  O5_28 
ROOT
HETATM    1  C4  UNL     1      -2.678  50.456 -26.663  1.00  0.00     0.089 C 
ENDROOT
BRANCH   1   2
HETATM    2  C3  UNL     1      -3.587  49.914 -27.787  1.00  0.00     0.040 C 
BRANCH   2   3
HETATM    3  C2  UNL     1      -4.162  48.506 -27.581  1.00  0.00     0.081 C 
HETATM    4  C1  UNL     1      -4.942  48.345 -26.279  1.00  0.00     0.021 C 
BRANCH   3   5
HETATM    5  C22 UNL     1      -5.040  48.154 -28.760  1.00  0.00     0.143 C 
HETATM    6  O4  UNL     1      -4.657  47.709 -29.830  1.00  0.00    -0.650 OA
BRANCH   5   7
HETATM    7  O5  UNL     1      -6.347  48.402 -28.556  1.00  0.00    -0.776 OA
HETATM    8  H25 UNL     1      -6.768  48.147 -29.404  1.00  0.00     0.167 HD
ENDBRANCH   5   7
ENDBRANCH   3   5
ENDBRANCH   2   3
ENDBRANCH   1   2
BRANCH   1   9
HETATM    9  C5  UNL     1      -2.312  49.409 -25.580  1.00  0.00     0.063 C 
BRANCH   9  10
HETATM   10  C6  UNL     1      -1.766  49.981 -24.291  1.00  0.00    -0.056 A 
HETATM   11  C7  UNL     1      -1.011  51.159 -24.292  1.00  0.00     0.008 A 
HETATM   12  C8  UNL     1      -0.504  51.680 -23.097  1.00  0.00     0.013 A 
HETATM   13  C9  UNL     1      -0.724  51.033 -21.872  1.00  0.00    -0.026 A 
HETATM   14  C16 UNL     1      -1.464  49.842 -21.884  1.00  0.00     0.013 A 
HETATM   15  C17 UNL     1      -1.973  49.317 -23.076  1.00  0.00     0.008 A 
BRANCH  13  16
HETATM   16  C10 UNL     1      -0.191  51.584 -20.615  1.00  0.00    -0.026 A 
HETATM   17  C11 UNL     1      -0.511  51.003 -19.377  1.00  0.00     0.012 A 
HETATM   18  C12 UNL     1      -0.004  51.525 -18.182  1.00  0.00     0.001 A 
HETATM   19  C13 UNL     1       0.831  52.638 -18.208  1.00  0.00     0.000 A 
HETATM   20  C14 UNL     1       1.161  53.230 -19.424  1.00  0.00     0.001 A 
HETATM   21  C15 UNL     1       0.654  52.706 -20.617  1.00  0.00     0.012 A 
ENDBRANCH  13  16
ENDBRANCH   9  10
ENDBRANCH   1   9
BRANCH   1  22
HETATM   22  N1  UNL     1      -1.466  51.048 -27.250  1.00  0.00    -0.356 N 
HETATM   23  C18 UNL     1      -1.346  52.380 -27.584  1.00  0.00     0.218 C 
HETATM   24  O1  UNL     1      -2.253  53.195 -27.471  1.00  0.00    -0.274 OA
HETATM   25  H19 UNL     1      -0.638  50.465 -27.302  1.00  0.00     0.162 HD
BRANCH  23  26
HETATM   26  C19 UNL     1       0.027  52.730 -28.111  1.00  0.00     0.113 C 
BRANCH  26  27
HETATM   27  C20 UNL     1       0.985  51.550 -28.019  1.00  0.00     0.119 C 
BRANCH  27  28
HETATM   28  C21 UNL     1       2.081  51.828 -27.034  1.00  0.00     0.139 C 
HETATM   29  O2  UNL     1       1.964  52.314 -25.921  1.00  0.00    -0.650 OA
BRANCH  28  30
HETATM   30  O3  UNL     1       3.291  51.476 -27.506  1.00  0.00    -0.776 OA
HETATM   31  H24 UNL     1       3.913  51.704 -26.784  1.00  0.00     0.167 HD
ENDBRANCH  28  30
ENDBRANCH  27  28
ENDBRANCH  26  27
ENDBRANCH  23  26
ENDBRANCH   1  22
TORSDOF 12
ENDMDL
