MODEL 1
REMARK minimizedAffinity -6.06116343
REMARK CNNscore 0.700529277
REMARK CNNaffinity 7.48060369
REMARK  16 active torsions:
REMARK  status: ('A' for Active; 'I' for Inactive)
REMARK    1  A    between atoms: C2_2  and  C3_3 
REMARK    2  A    between atoms: C3_3  and  C4_4 
REMARK    3  A    between atoms: C4_4  and  C5_5 
REMARK    4  A    between atoms: C5_5  and  C6_6 
REMARK    5  A    between atoms: C8_8  and  C9_9 
REMARK    6  A    between atoms: C20_23  and  C21_24 
REMARK    7  A    between atoms: C21_24  and  N1_25 
REMARK    8  A    between atoms: N1_25  and  C22_26 
REMARK    9  A    between atoms: C22_26  and  C23_27 
REMARK   10  A    between atoms: C23_27  and  C24_28 
REMARK   11  A    between atoms: C24_28  and  O4_29 
REMARK   12  A    between atoms: C29_34  and  O5_35 
REMARK   13  A    between atoms: C30_36  and  O6_37 
REMARK   14  A    between atoms: C34_41  and  C35_42 
REMARK   15  A    between atoms: C41_48  and  O7_49 
REMARK   16  A    between atoms: C42_50  and  O8_51 
ROOT
HETATM    1  C6  UNL     1      -0.221  36.986 -30.334  1.00  0.00     0.016 C 
HETATM    2  C7  UNL     1      -0.813  38.076 -31.215  1.00  0.00     0.027 C 
HETATM    3  C8  UNL     1      -1.878  37.534 -32.230  1.00  0.00     0.051 C 
HETATM    4  C10 UNL     1      -2.687  38.783 -32.759  1.00  0.00     0.041 C 
HETATM    5  C11 UNL     1      -1.842  39.832 -33.491  1.00  0.00     0.010 C 
HETATM    6  C12 UNL     1      -2.578  41.163 -33.447  1.00  0.00     0.013 C 
HETATM    7  C13 UNL     1      -3.994  41.114 -34.058  1.00  0.00    -0.002 C 
HETATM    8  C14 UNL     1      -3.943  41.996 -35.334  1.00  0.00     0.019 C 
HETATM    9  C15 UNL     1      -5.058  41.595 -33.030  1.00  0.00     0.036 C 
HETATM   10  C16 UNL     1      -5.209  42.961 -32.462  1.00  0.00    -0.035 C 
HETATM   11  C17 UNL     1      -4.607  44.128 -32.684  1.00  0.00     0.088 C 
HETATM   12  C18 UNL     1      -5.354  45.116 -31.900  1.00  0.00     0.284 C 
HETATM   13  O2  UNL     1      -5.052  46.285 -31.769  1.00  0.00    -0.260 OA
HETATM   14  O3  UNL     1      -6.443  44.523 -31.333  1.00  0.00    -0.304 OA
HETATM   15  C19 UNL     1      -6.310  43.114 -31.466  1.00  0.00     0.192 C 
HETATM   16  C20 UNL     1      -7.601  42.424 -31.888  1.00  0.00    -0.022 C 
HETATM   17  C26 UNL     1      -7.602  41.515 -32.891  1.00  0.00    -0.014 C 
HETATM   18  C27 UNL     1      -6.379  41.246 -33.732  1.00  0.00     0.021 C 
HETATM   19  C28 UNL     1      -6.135  39.811 -34.192  1.00  0.00     0.051 C 
HETATM   20  C29 UNL     1      -4.579  39.668 -34.381  1.00  0.00     0.098 C 
HETATM   21  C30 UNL     1      -3.913  38.419 -33.623  1.00  0.00     0.095 C 
HETATM   22  C31 UNL     1      -4.842  37.635 -32.699  1.00  0.00     0.049 C 
HETATM   23  C32 UNL     1      -4.251  36.341 -32.107  1.00  0.00     0.025 C 
HETATM   24  C33 UNL     1      -5.283  35.663 -31.156  1.00  0.00     0.012 C 
HETATM   25  C34 UNL     1      -5.928  36.558 -30.057  1.00  0.00    -0.011 C 
HETATM   26  C38 UNL     1      -4.971  37.038 -28.942  1.00  0.00     0.005 C 
HETATM   27  C39 UNL     1      -3.600  37.570 -29.378  1.00  0.00     0.010 C 
HETATM   28  C40 UNL     1      -2.747  36.449 -29.987  1.00  0.00     0.051 C 
HETATM   29  C41 UNL     1      -1.304  36.381 -29.427  1.00  0.00     0.129 C 
HETATM   30  C42 UNL     1      -2.788  36.418 -31.544  1.00  0.00     0.082 C 
ENDROOT
BRANCH  16  31
HETATM   31  C21 UNL     1      -8.810  42.842 -31.078  1.00  0.00     0.306 C 
BRANCH  31  32
HETATM   32  N1  UNL     1      -9.388  44.130 -31.468  1.00  0.00     0.087 N 
HETATM   33  H29 UNL     1      -8.632  44.730 -31.800  1.00  0.00     0.316 HD
BRANCH  32  34
HETATM   34  C22 UNL     1     -10.008  44.785 -30.309  1.00  0.00     0.272 C 
BRANCH  34  35
HETATM   35  C23 UNL     1     -10.842  45.991 -30.758  1.00  0.00     0.056 C 
BRANCH  35  36
HETATM   36  C24 UNL     1      -9.998  47.257 -30.794  1.00  0.00     0.168 C 
BRANCH  36  37
HETATM   37  O4  UNL     1      -9.549  47.555 -32.117  1.00  0.00    -0.396 OA
HETATM   38  C25 UNL     1      -8.185  47.958 -32.165  1.00  0.00     0.201 C 
ENDBRANCH  36  37
ENDBRANCH  35  36
ENDBRANCH  34  35
ENDBRANCH  32  34
ENDBRANCH  31  32
ENDBRANCH  16  31
BRANCH  20  39
HETATM   39  O5  UNL     1      -4.404  39.408 -35.799  1.00  0.00    -0.386 OA
HETATM   40  H43 UNL     1      -3.443  39.297 -35.949  1.00  0.00     0.210 HD
ENDBRANCH  20  39
BRANCH  21  41
HETATM   41  O6  UNL     1      -3.492  37.495 -34.643  1.00  0.00    -0.386 OA
HETATM   42  H44 UNL     1      -4.192  37.504 -35.330  1.00  0.00     0.210 HD
ENDBRANCH  21  41
BRANCH   3  43
HETATM   43  C9  UNL     1      -1.113  36.920 -33.420  1.00  0.00     0.244 C 
HETATM   44  O1  UNL     1       0.113  36.817 -33.467  1.00  0.00    -0.306 OA
ENDBRANCH   3  43
BRANCH  30  45
HETATM   45  O8  UNL     1      -2.205  35.124 -31.890  1.00  0.00    -0.388 OA
HETATM   46  H65 UNL     1      -1.902  34.665 -31.077  1.00  0.00     0.210 HD
ENDBRANCH  30  45
BRANCH   1  47
HETATM   47  C5  UNL     1       0.956  37.492 -29.461  1.00  0.00     0.007 C 
BRANCH  47  48
HETATM   48  C4  UNL     1       0.591  38.359 -28.248  1.00  0.00     0.000 C 
BRANCH  48  49
HETATM   49  C3  UNL     1       1.730  38.546 -27.247  1.00  0.00    -0.000 C 
BRANCH  49  50
HETATM   50  C2  UNL     1       2.822  39.461 -27.814  1.00  0.00    -0.005 C 
HETATM   51  C1  UNL     1       4.198  38.841 -27.649  1.00  0.00     0.005 C 
ENDBRANCH  49  50
ENDBRANCH  48  49
ENDBRANCH  47  48
ENDBRANCH   1  47
BRANCH  25  52
HETATM   52  C35 UNL     1      -7.217  35.874 -29.485  1.00  0.00    -0.019 C 
HETATM   53  C36 UNL     1      -6.963  34.993 -28.262  1.00  0.00     0.010 C 
HETATM   54  C37 UNL     1      -8.319  36.891 -29.185  1.00  0.00     0.010 C 
ENDBRANCH  25  52
BRANCH  29  55
HETATM   55  O7  UNL     1      -0.996  34.981 -29.282  1.00  0.00    -0.395 OA
HETATM   56  H64 UNL     1      -0.092  34.910 -28.922  1.00  0.00     0.210 HD
ENDBRANCH  29  55
TORSDOF 16
ENDMDL
