MODEL 1
REMARK minimizedAffinity -8.30177784
REMARK CNNscore 0.713200629
REMARK CNNaffinity 6.99972343
REMARK  11 active torsions:
REMARK  status: ('A' for Active; 'I' for Inactive)
REMARK    1  A    between atoms: C2_2  and  O2_4 
REMARK    2  A    between atoms: O2_4  and  C3_5 
REMARK    3  A    between atoms: C4_6  and  O3_7 
REMARK    4  A    between atoms: O3_7  and  C5_8 
REMARK    5  A    between atoms: C15_18  and  C16_19 
REMARK    6  A    between atoms: C20_23  and  C21_24 
REMARK    7  A    between atoms: C21_24  and  O4_27 
REMARK    8  A    between atoms: C24_29  and  O6_30 
REMARK    9  A    between atoms: C30_36  and  O7_37 
REMARK   10  A    between atoms: C36_44  and  O9_45 
REMARK   11  A    between atoms: C37_46  and  O10_47 
ROOT
HETATM    1  C5  UNL     1       1.019  52.662 -11.981  1.00  0.00     0.133 C 
HETATM    2  C6  UNL     1      -0.168  53.384 -11.340  1.00  0.00     0.034 C 
HETATM    3  C7  UNL     1       0.270  54.526 -10.438  1.00  0.00     0.013 C 
HETATM    4  C8  UNL     1       1.301  54.109  -9.412  1.00  0.00    -0.025 A 
HETATM    5  C9  UNL     1       0.903  53.820  -7.993  1.00  0.00     0.021 A 
HETATM    6  C10 UNL     1       1.641  55.120  -8.293  1.00  0.00    -0.027 A 
HETATM    7  C11 UNL     1       0.811  56.367  -8.029  1.00  0.00     0.011 C 
HETATM    8  C12 UNL     1       1.074  57.020  -6.650  1.00  0.00     0.011 C 
HETATM    9  C13 UNL     1       2.403  56.599  -5.987  1.00  0.00    -0.028 C 
HETATM   10  C14 UNL     1       2.187  55.268  -5.213  1.00  0.00     0.016 C 
HETATM   11  C15 UNL     1       3.060  57.642  -5.016  1.00  0.00     0.057 C 
HETATM   12  C24 UNL     1       4.578  57.251  -5.057  1.00  0.00     0.126 C 
HETATM   13  C25 UNL     1       4.770  56.316  -6.277  1.00  0.00     0.042 C 
HETATM   14  C26 UNL     1       3.495  56.493  -7.123  1.00  0.00    -0.029 C 
HETATM   15  C27 UNL     1       3.700  57.815  -7.943  1.00  0.00     0.016 C 
HETATM   16  C28 UNL     1       3.170  55.283  -8.075  1.00  0.00     0.006 C 
HETATM   17  C29 UNL     1       3.859  55.384  -9.463  1.00  0.00     0.038 C 
HETATM   18  C30 UNL     1       3.623  54.182 -10.397  1.00  0.00     0.124 C 
HETATM   19  C31 UNL     1       2.473  53.261  -9.938  1.00  0.00     0.034 C 
HETATM   20  C32 UNL     1       2.010  52.125 -10.908  1.00  0.00    -0.015 C 
HETATM   21  C33 UNL     1       1.344  51.001 -10.063  1.00  0.00     0.018 C 
HETATM   22  C34 UNL     1       3.217  51.465 -11.613  1.00  0.00     0.018 C 
ENDROOT
BRANCH   1  23
HETATM   23  O3  UNL     1       0.527  51.550 -12.740  1.00  0.00    -0.352 OA
BRANCH  23  24
HETATM   24  C4  UNL     1      -0.379  51.909 -13.792  1.00  0.00     0.292 C 
HETATM   25  C3  UNL     1       0.331  51.555 -15.125  1.00  0.00     0.218 C 
HETATM   26  C37 UNL     1      -0.670  51.288 -16.264  1.00  0.00     0.183 C 
HETATM   27  C36 UNL     1      -1.855  50.409 -15.820  1.00  0.00     0.173 C 
HETATM   28  C35 UNL     1      -1.809  50.091 -14.327  1.00  0.00     0.205 C 
HETATM   29  O8  UNL     1      -1.644  51.291 -13.585  1.00  0.00    -0.356 OA
BRANCH  25  30
HETATM   30  O2  UNL     1       1.196  52.696 -15.425  1.00  0.00    -0.309 OA
BRANCH  30  31
HETATM   31  C2  UNL     1       2.166  52.537 -16.355  1.00  0.00     0.255 C 
HETATM   32  C1  UNL     1       3.513  52.408 -15.709  1.00  0.00     0.126 C 
HETATM   33  O1  UNL     1       1.972  52.494 -17.561  1.00  0.00    -0.266 OA
ENDBRANCH  30  31
ENDBRANCH  25  30
BRANCH  26  34
HETATM   34  O10 UNL     1      -0.044  50.588 -17.362  1.00  0.00    -0.390 OA
HETATM   35  H60 UNL     1       0.894  50.864 -17.429  1.00  0.00     0.210 HD
ENDBRANCH  26  34
BRANCH  27  36
HETATM   36  O9  UNL     1      -3.069  51.119 -16.125  1.00  0.00    -0.391 OA
HETATM   37  H58 UNL     1      -3.816  50.533 -15.915  1.00  0.00     0.210 HD
ENDBRANCH  27  36
ENDBRANCH  23  24
ENDBRANCH   1  23
BRANCH  18  38
HETATM   38  O7  UNL     1       3.442  54.658 -11.728  1.00  0.00    -0.395 OA
HETATM   39  H47 UNL     1       2.723  55.312 -11.722  1.00  0.00     0.210 HD
ENDBRANCH  18  38
BRANCH  11  40
HETATM   40  C16 UNL     1       2.443  58.017  -3.634  1.00  0.00     0.065 C 
HETATM   41  C17 UNL     1       3.125  59.134  -2.822  1.00  0.00     0.046 C 
HETATM   42  C18 UNL     1       2.241  56.779  -2.758  1.00  0.00     0.041 C 
HETATM   43  C19 UNL     1       1.025  57.109  -1.920  1.00  0.00     0.038 C 
HETATM   44  C20 UNL     1       0.235  58.106  -2.768  1.00  0.00     0.156 C 
HETATM   45  O5  UNL     1       1.079  58.440  -3.896  1.00  0.00    -0.372 OA
BRANCH  44  46
HETATM   46  C21 UNL     1      -1.128  57.608  -3.311  1.00  0.00     0.076 C 
HETATM   47  C22 UNL     1      -2.279  58.440  -2.725  1.00  0.00     0.048 C 
HETATM   48  C23 UNL     1      -1.367  56.128  -3.009  1.00  0.00     0.048 C 
BRANCH  46  49
HETATM   49  O4  UNL     1      -1.160  57.783  -4.735  1.00  0.00    -0.388 OA
HETATM   50  H35 UNL     1      -0.886  58.711  -4.876  1.00  0.00     0.210 HD
ENDBRANCH  46  49
ENDBRANCH  44  46
ENDBRANCH  11  40
BRANCH  12  51
HETATM   51  O6  UNL     1       5.043  56.579  -3.902  1.00  0.00    -0.395 OA
HETATM   52  H37 UNL     1       6.003  56.457  -4.000  1.00  0.00     0.210 HD
ENDBRANCH  12  51
TORSDOF 11
ENDMDL
