MODEL 1
REMARK minimizedAffinity -9.17211628
REMARK CNNscore 0.569707751
REMARK CNNaffinity 7.80851889
REMARK  12 active torsions:
REMARK  status: ('A' for Active; 'I' for Inactive)
REMARK    1  A    between atoms: O1_2  and  C2_3 
REMARK    2  A    between atoms: C4_5  and  O2_6 
REMARK    3  A    between atoms: O2_6  and  C5_7 
REMARK    4  A    between atoms: C15_17  and  O3_18 
REMARK    5  A    between atoms: O3_18  and  C16_19 
REMARK    6  A    between atoms: C18_22  and  O5_23 
REMARK    7  A    between atoms: O5_23  and  C19_24 
REMARK    8  A    between atoms: C19_24  and  C20_26 
REMARK    9  A    between atoms: C20_26  and  C21_27 
REMARK   10  A    between atoms: C26_32  and  C27_33 
REMARK   11  A    between atoms: C31_38  and  O8_39 
REMARK   12  A    between atoms: C35_44  and  O10_45 
ROOT
HETATM    1  C5  UNL     1      -4.212   7.124  14.557  1.00  0.00     0.128 C 
HETATM    2  C6  UNL     1      -3.383   5.948  15.091  1.00  0.00     0.033 C 
HETATM    3  C7  UNL     1      -1.871   6.174  14.951  1.00  0.00     0.016 C 
HETATM    4  C8  UNL     1      -1.396   6.532  13.508  1.00  0.00    -0.014 C 
HETATM    5  C9  UNL     1      -1.697   5.329  12.587  1.00  0.00     0.020 C 
HETATM    6  C10 UNL     1      -2.267   7.716  13.073  1.00  0.00    -0.072 C 
HETATM    7  C11 UNL     1      -1.768   8.917  12.748  1.00  0.00    -0.023 C 
HETATM    8  C12 UNL     1      -0.324   9.268  12.875  1.00  0.00     0.035 C 
HETATM    9  C13 UNL     1       0.388   8.375  13.911  1.00  0.00     0.032 C 
HETATM   10  C14 UNL     1       0.173   6.873  13.577  1.00  0.00     0.037 C 
HETATM   11  C15 UNL     1       1.086   6.461  12.382  1.00  0.00     0.167 C 
HETATM   12  C18 UNL     1       2.588   6.814  12.643  1.00  0.00     0.173 C 
HETATM   13  C24 UNL     1       2.862   8.304  13.004  1.00  0.00     0.027 C 
HETATM   14  C25 UNL     1       2.837   9.195  11.744  1.00  0.00     0.022 C 
HETATM   15  C26 UNL     1       4.221   8.522  13.762  1.00  0.00     0.069 C 
HETATM   16  C29 UNL     1       3.950   8.002  15.179  1.00  0.00     0.016 C 
HETATM   17  C30 UNL     1       2.448   8.148  15.412  1.00  0.00     0.040 C 
HETATM   18  C31 UNL     1       1.869   8.759  14.116  1.00  0.00     0.073 C 
HETATM   19  C32 UNL     1      -3.768   7.516  13.137  1.00  0.00     0.066 C 
ENDROOT
BRANCH   1  20
HETATM   20  O2  UNL     1      -5.611   6.820  14.489  1.00  0.00    -0.356 OA
BRANCH  20  21
HETATM   21  C4  UNL     1      -6.077   6.419  13.204  1.00  0.00     0.263 C 
HETATM   22  C3  UNL     1      -5.789   4.920  13.036  1.00  0.00     0.095 C 
HETATM   23  C2  UNL     1      -6.865   4.277  12.168  1.00  0.00     0.156 C 
HETATM   24  C35 UNL     1      -8.236   4.431  12.867  1.00  0.00     0.175 C 
HETATM   25  C33 UNL     1      -8.313   5.760  13.639  1.00  0.00     0.151 C 
HETATM   26  O9  UNL     1      -7.461   6.727  13.022  1.00  0.00    -0.354 OA
HETATM   27  C34 UNL     1      -9.733   6.313  13.649  1.00  0.00     0.042 C 
BRANCH  23  28
HETATM   28  O1  UNL     1      -6.637   2.873  11.963  1.00  0.00    -0.388 OA
HETATM   29  C1  UNL     1      -5.378   2.586  11.369  1.00  0.00     0.202 C 
ENDBRANCH  23  28
BRANCH  24  30
HETATM   30  O10 UNL     1      -8.457   3.346  13.780  1.00  0.00    -0.390 OA
HETATM   31  H54 UNL     1      -8.017   2.576  13.363  1.00  0.00     0.210 HD
ENDBRANCH  24  30
ENDBRANCH  20  21
ENDBRANCH   1  20
BRANCH  11  32
HETATM   32  O3  UNL     1       1.048   5.011  12.268  1.00  0.00    -0.313 OA
BRANCH  32  33
HETATM   33  C16 UNL     1       0.161   4.474  11.385  1.00  0.00     0.255 C 
HETATM   34  C17 UNL     1      -0.049   3.023  11.694  1.00  0.00     0.126 C 
HETATM   35  O4  UNL     1      -0.397   5.070  10.476  1.00  0.00    -0.266 OA
ENDBRANCH  32  33
ENDBRANCH  11  32
BRANCH  18  36
HETATM   36  O8  UNL     1       1.961  10.181  14.285  1.00  0.00    -0.389 OA
HETATM   37  H46 UNL     1       1.360  10.450  15.002  1.00  0.00     0.210 HD
ENDBRANCH  18  36
BRANCH  12  38
HETATM   38  O5  UNL     1       3.323   6.466  11.446  1.00  0.00    -0.312 OA
BRANCH  38  39
HETATM   39  C19 UNL     1       2.626   6.018  10.367  1.00  0.00     0.259 C 
HETATM   40  O6  UNL     1       2.478   4.839  10.075  1.00  0.00    -0.265 OA
BRANCH  39  41
HETATM   41  C20 UNL     1       2.020   7.188   9.621  1.00  0.00     0.115 C 
BRANCH  41  42
HETATM   42  C21 UNL     1       2.643   7.411   8.234  1.00  0.00    -0.013 C 
HETATM   43  C22 UNL     1       1.625   7.228   7.107  1.00  0.00     0.010 C 
HETATM   44  C23 UNL     1       3.242   8.818   8.153  1.00  0.00     0.010 C 
ENDBRANCH  41  42
ENDBRANCH  39  41
ENDBRANCH  38  39
ENDBRANCH  12  38
BRANCH  15  45
HETATM   45  C27 UNL     1       5.506   7.975  13.133  1.00  0.00     0.128 C 
HETATM   46  C28 UNL     1       6.090   8.693  11.940  1.00  0.00     0.091 C 
HETATM   47  O7  UNL     1       6.018   6.918  13.512  1.00  0.00    -0.298 OA
ENDBRANCH  15  45
TORSDOF 12
ENDMDL
