MODEL 1
REMARK minimizedAffinity -8.96396542
REMARK CNNscore 0.539179564
REMARK CNNaffinity 7.23285103
REMARK  6 active torsions:
REMARK  status: ('A' for Active; 'I' for Inactive)
REMARK    1  A    between atoms: C3_3  and  O1_4 
REMARK    2  A    between atoms: N1_14  and  O2_16 
REMARK    3  A    between atoms: O2_16  and  C13_17 
REMARK    4  A    between atoms: C13_17  and  C14_18 
REMARK       I    between atoms: C14_18  and  N2_20 
REMARK    5  A    between atoms: N2_20  and  C15_21 
REMARK    6  A    between atoms: C15_21  and  C17_23 
ROOT
HETATM    1  C1  UNL     1       2.234  51.270 -27.521  1.00  0.00     0.015 C 
HETATM    2  C2  UNL     1       1.203  51.867 -27.360  1.00  0.00    -0.078 C 
HETATM    3  C3  UNL     1      -0.058  52.623 -27.188  1.00  0.00     0.128 C 
HETATM    4  C4  UNL     1       0.223  53.976 -26.485  1.00  0.00     0.052 C 
HETATM    5  C5  UNL     1      -0.153  53.792 -25.000  1.00  0.00     0.010 C 
HETATM    6  C6  UNL     1      -0.484  52.307 -24.861  1.00  0.00     0.002 C 
HETATM    7  C7  UNL     1      -1.366  51.864 -23.686  1.00  0.00    -0.004 C 
HETATM    8  C8  UNL     1      -0.739  52.250 -22.340  1.00  0.00     0.010 C 
HETATM    9  C9  UNL     1      -1.618  51.807 -21.178  1.00  0.00     0.035 C 
HETATM   10  C10 UNL     1      -1.940  50.332 -21.228  1.00  0.00    -0.069 C 
HETATM   11  C11 UNL     1      -1.797  49.588 -20.116  1.00  0.00     0.030 C 
HETATM   12  C12 UNL     1      -2.233  48.170 -20.052  1.00  0.00     0.032 C 
HETATM   13  N1  UNL     1      -2.074  47.539 -18.923  1.00  0.00    -0.271 N 
ATOM     14  H1  UNL     1      -1.623  47.940 -18.101  1.00  0.00     0.194 HD
HETATM   15  C23 UNL     1      -2.899  47.579 -21.277  1.00  0.00     0.060 C 
HETATM   16  C24 UNL     1      -2.369  48.224 -22.549  1.00  0.00     0.020 C 
HETATM   17  C25 UNL     1      -2.461  49.777 -22.559  1.00  0.00    -0.016 C 
HETATM   18  C26 UNL     1      -3.942  50.194 -22.707  1.00  0.00     0.020 C 
HETATM   19  C27 UNL     1      -1.573  50.319 -23.747  1.00  0.00     0.002 C 
HETATM   20  C28 UNL     1      -2.045  49.844 -25.150  1.00  0.00     0.007 C 
HETATM   21  C29 UNL     1      -1.201  50.408 -26.307  1.00  0.00     0.014 C 
HETATM   22  C30 UNL     1      -1.085  51.941 -26.236  1.00  0.00     0.003 C 
HETATM   23  C31 UNL     1      -2.498  52.553 -26.483  1.00  0.00     0.020 C 
ENDROOT
BRANCH   3  24
HETATM   24  O1  UNL     1      -0.610  52.848 -28.479  1.00  0.00    -0.377 OA
HETATM   25  H2  UNL     1       0.111  53.182 -29.039  1.00  0.00     0.211 HD
ENDBRANCH   3  24
BRANCH  13  26
HETATM   26  O2  UNL     1      -2.602  46.240 -18.980  1.00  0.00    -0.271 OA
BRANCH  26  27
HETATM   27  C13 UNL     1      -3.388  46.020 -17.818  1.00  0.00     0.303 C 
BRANCH  27  28
HETATM   28  C14 UNL     1      -3.362  44.539 -17.464  1.00  0.00     0.244 C 
HETATM   29  O3  UNL     1      -4.228  43.751 -17.839  1.00  0.00    -0.271 OA
HETATM   30  N2  UNL     1      -2.290  44.152 -16.686  1.00  0.00    -0.351 N 
HETATM   31  H16 UNL     1      -1.537  44.805 -16.511  1.00  0.00     0.163 HD
BRANCH  30  32
HETATM   32  C15 UNL     1      -2.100  42.772 -16.271  1.00  0.00     0.113 C 
HETATM   33  C16 UNL     1      -2.303  42.617 -14.759  1.00  0.00     0.037 C 
BRANCH  32  34
HETATM   34  C17 UNL     1      -0.742  42.286 -16.753  1.00  0.00    -0.036 A 
HETATM   35  C18 UNL     1       0.463  42.798 -16.247  1.00  0.00     0.009 A 
HETATM   36  C19 UNL     1       1.692  42.341 -16.731  1.00  0.00     0.001 A 
HETATM   37  C20 UNL     1       1.733  41.375 -17.733  1.00  0.00     0.000 A 
HETATM   38  C21 UNL     1       0.546  40.872 -18.261  1.00  0.00     0.001 A 
HETATM   39  C22 UNL     1      -0.683  41.328 -17.779  1.00  0.00     0.009 A 
ENDBRANCH  32  34
ENDBRANCH  30  32
ENDBRANCH  27  28
ENDBRANCH  26  27
ENDBRANCH  13  26
TORSDOF 6
ENDMDL
