MODEL 1
REMARK minimizedAffinity -9.71897697
REMARK CNNscore 0.279446572
REMARK CNNaffinity 7.46089554
REMARK  14 active torsions:
REMARK  status: ('A' for Active; 'I' for Inactive)
REMARK    1  A    between atoms: C2_2  and  C3_3 
REMARK    2  A    between atoms: C6_6  and  C7_7 
REMARK    3  A    between atoms: C7_7  and  C8_8 
REMARK    4  A    between atoms: C14_17  and  C15_18 
REMARK    5  A    between atoms: C15_18  and  O3_20 
REMARK    6  A    between atoms: C19_24  and  C20_25 
REMARK    7  A    between atoms: C20_25  and  C21_26 
REMARK    8  A    between atoms: C22_27  and  C23_28 
REMARK    9  A    between atoms: C25_30  and  C26_31 
REMARK   10  A    between atoms: C27_33  and  C28_34 
REMARK   11  A    between atoms: C29_38  and  C30_39 
REMARK   12  A    between atoms: C30_39  and  C31_40 
REMARK   13  A    between atoms: C31_40  and  C32_41 
REMARK   14  A    between atoms: C32_41  and  O7_43 
ROOT
HETATM    1  C8  UNL     1      -0.663   5.844  12.424  1.00  0.00     0.016 C 
HETATM    2  N1  UNL     1      -1.558   5.092  11.865  1.00  0.00    -0.362 N 
ATOM      3  H1  UNL     1      -1.444   4.568  10.997  1.00  0.00     0.165 HD
HETATM    4  C9  UNL     1      -2.691   5.126  12.647  1.00  0.00     0.024 C 
HETATM    5  C10 UNL     1      -3.723   4.311  12.385  1.00  0.00     0.014 C 
HETATM    6  C11 UNL     1      -4.984   4.313  13.013  1.00  0.00     0.056 A 
HETATM    7  C12 UNL     1      -5.930   3.622  12.314  1.00  0.00     0.046 A 
HETATM    8  C13 UNL     1      -5.324   3.079  11.111  1.00  0.00     0.180 C 
HETATM    9  O1  UNL     1      -5.927   2.522  10.201  1.00  0.00    -0.291 OA
HETATM   10  C14 UNL     1      -3.792   3.347  11.161  1.00  0.00     0.197 C 
HETATM   11  C17 UNL     1      -7.140   3.688  13.026  1.00  0.00    -0.023 A 
HETATM   12  C18 UNL     1      -8.432   3.060  12.640  1.00  0.00     0.051 C 
HETATM   13  C19 UNL     1      -6.851   4.418  14.188  1.00  0.00     0.022 A 
HETATM   14  N3  UNL     1      -5.513   4.795  14.155  1.00  0.00    -0.357 N 
HETATM   15  C29 UNL     1      -2.582   6.197  13.713  1.00  0.00     0.046 C 
HETATM   16  C34 UNL     1      -1.064   6.450  13.749  1.00  0.00     0.041 C 
HETATM   17  C35 UNL     1      -0.376   5.697  14.885  1.00  0.00     0.017 C 
HETATM   18  H25 UNL     1      -5.039   5.304  14.886  1.00  0.00     0.166 HD
ENDROOT
BRANCH  10  19
HETATM   19  C15 UNL     1      -3.051   2.059  11.427  1.00  0.00     0.274 C 
HETATM   20  O2  UNL     1      -3.558   1.034  11.874  1.00  0.00    -0.264 OA
BRANCH  19  21
HETATM   21  O3  UNL     1      -1.728   2.187  11.111  1.00  0.00    -0.326 OA
HETATM   22  C16 UNL     1      -1.064   0.949  10.827  1.00  0.00     0.213 C 
ENDBRANCH  19  21
ENDBRANCH  10  19
BRANCH  15  23
HETATM   23  C30 UNL     1      -3.379   7.481  13.395  1.00  0.00     0.021 C 
BRANCH  23  24
HETATM   24  C31 UNL     1      -2.855   8.775  14.032  1.00  0.00     0.112 C 
BRANCH  24  25
HETATM   25  C32 UNL     1      -1.955   9.529  13.079  1.00  0.00     0.258 C 
HETATM   26  O6  UNL     1      -1.802   9.254  11.898  1.00  0.00    -0.265 OA
BRANCH  25  27
HETATM   27  O7  UNL     1      -1.376  10.582  13.724  1.00  0.00    -0.326 OA
HETATM   28  C33 UNL     1      -0.225  10.235  14.493  1.00  0.00     0.213 C 
ENDBRANCH  25  27
ENDBRANCH  24  25
ENDBRANCH  23  24
ENDBRANCH  15  23
BRANCH   1  29
HETATM   29  C7  UNL     1       0.680   6.130  11.869  1.00  0.00     0.055 C 
BRANCH  29  30
HETATM   30  C6  UNL     1       0.851   6.785  10.717  1.00  0.00     0.043 A 
HETATM   31  C4  UNL     1       1.836   6.555   9.677  1.00  0.00    -0.019 A 
HETATM   32  C3  UNL     1       1.655   7.414   8.647  1.00  0.00     0.039 A 
HETATM   33  C5  UNL     1       2.870   5.487   9.813  1.00  0.00     0.052 C 
HETATM   34  C36 UNL     1       0.491   8.275   9.043  1.00  0.00     0.256 A 
HETATM   35  N4  UNL     1       0.093   7.824  10.279  1.00  0.00    -0.322 N 
HETATM   36  O8  UNL     1      -0.012   9.185   8.412  1.00  0.00    -0.267 OA
HETATM   37  H38 UNL     1      -0.664   8.248  10.812  1.00  0.00     0.169 HD
BRANCH  32  38
HETATM   38  C2  UNL     1       2.423   7.523   7.429  1.00  0.00     0.007 C 
HETATM   39  C1  UNL     1       1.996   7.250   6.191  1.00  0.00     0.012 C 
ENDBRANCH  32  38
ENDBRANCH  29  30
ENDBRANCH   1  29
BRANCH  13  40
HETATM   40  C20 UNL     1      -7.719   4.786  15.355  1.00  0.00     0.115 C 
BRANCH  40  41
HETATM   41  C21 UNL     1      -8.381   6.118  15.170  1.00  0.00     0.022 A 
HETATM   42  C22 UNL     1      -7.959   7.414  15.443  1.00  0.00    -0.020 A 
HETATM   43  C25 UNL     1      -9.043   8.293  15.079  1.00  0.00     0.040 A 
HETATM   44  C27 UNL     1     -10.068   7.498  14.585  1.00  0.00     0.084 A 
HETATM   45  N2  UNL     1      -9.642   6.194  14.642  1.00  0.00    -0.356 N 
HETATM   46  H24 UNL     1     -10.216   5.411  14.350  1.00  0.00     0.166 HD
BRANCH  42  47
HETATM   47  C23 UNL     1      -6.636   7.826  16.023  1.00  0.00     0.037 C 
HETATM   48  C24 UNL     1      -6.053   9.053  15.336  1.00  0.00     0.010 C 
ENDBRANCH  42  47
BRANCH  43  49
HETATM   49  C26 UNL     1      -9.079   9.745  15.204  1.00  0.00     0.273 C 
HETATM   50  O4  UNL     1     -10.110  10.398  15.326  1.00  0.00    -0.301 OA
ENDBRANCH  43  49
BRANCH  44  51
HETATM   51  C28 UNL     1     -11.377   7.840  14.080  1.00  0.00     0.288 C 
HETATM   52  O5  UNL     1     -11.544   8.513  13.064  1.00  0.00    -0.300 OA
ENDBRANCH  44  51
ENDBRANCH  40  41
ENDBRANCH  13  40
TORSDOF 14
ENDMDL
