MODEL 1
REMARK minimizedAffinity -7.92122746
REMARK  6 active torsions:
REMARK  status: ('A' for Active; 'I' for Inactive)
REMARK    1  A    between atoms: C4_5  and  N2_6 
REMARK       I    between atoms: N2_6  and  C5_7 
REMARK    2  A    between atoms: C5_7  and  C6_9 
REMARK    3  A    between atoms: C6_9  and  O3_11 
REMARK    4  A    between atoms: C8_14  and  N3_15 
REMARK       I    between atoms: N3_15  and  C9_16 
REMARK    5  A    between atoms: C9_16  and  C10_18 
REMARK    6  A    between atoms: C10_18  and  O6_20 
ROOT
HETATM    1  N1  UNL     1      -8.563   2.902  12.737  1.00  0.00    -0.191 NA
HETATM    2  C1  UNL     1      -7.504   3.371  12.809  1.00  0.00     0.099 C 
HETATM    3  C2  UNL     1      -6.194   3.952  12.895  1.00  0.00     0.049 A 
HETATM    4  C3  UNL     1      -6.006   5.143  13.607  1.00  0.00     0.054 A 
HETATM    5  C4  UNL     1      -4.737   5.720  13.701  1.00  0.00     0.060 A 
HETATM    6  C7  UNL     1      -3.652   5.077  13.065  1.00  0.00     0.087 A 
HETATM    7 CL1  UNL     1      -2.061   5.781  13.171  1.00  0.00    -0.079 Cl
HETATM    8  C8  UNL     1      -3.830   3.875  12.344  1.00  0.00     0.060 A 
HETATM    9  C11 UNL     1      -5.111   3.323  12.269  1.00  0.00     0.054 A 
ENDROOT
BRANCH   5  10
HETATM   10  N2  UNL     1      -4.491   6.919  14.405  1.00  0.00    -0.316 N 
HETATM   11  C5  UNL     1      -4.610   8.222  13.956  1.00  0.00     0.319 C 
HETATM   12  O1  UNL     1      -4.955   8.602  12.848  1.00  0.00    -0.261 OA
HETATM   13  H2  UNL     1      -4.185   6.830  15.374  1.00  0.00     0.169 HD
BRANCH  11  14
HETATM   14  C6  UNL     1      -4.242   9.263  15.054  1.00  0.00     0.237 C 
HETATM   15  O2  UNL     1      -3.905  10.413  14.868  1.00  0.00    -0.643 OA
BRANCH  14  16
HETATM   16  O3  UNL     1      -4.337   8.742  16.293  1.00  0.00    -0.769 OA
HETATM   17  H3  UNL     1      -4.082   9.495  16.872  1.00  0.00     0.168 HD
ENDBRANCH  14  16
ENDBRANCH  11  14
ENDBRANCH   5  10
BRANCH   8  18
HETATM   18  N3  UNL     1      -2.703   3.281  11.731  1.00  0.00    -0.316 N 
HETATM   19  C9  UNL     1      -2.473   1.943  11.471  1.00  0.00     0.319 C 
HETATM   20  O4  UNL     1      -3.199   0.995  11.721  1.00  0.00    -0.261 OA
HETATM   21  H4  UNL     1      -1.958   3.915  11.438  1.00  0.00     0.169 HD
BRANCH  19  22
HETATM   22  C10 UNL     1      -1.099   1.733  10.779  1.00  0.00     0.237 C 
HETATM   23  O5  UNL     1      -0.060   2.161  11.251  1.00  0.00    -0.643 OA
BRANCH  22  24
HETATM   24  O6  UNL     1      -1.153   1.052   9.635  1.00  0.00    -0.769 OA
HETATM   25  H5  UNL     1      -0.231   0.996   9.313  1.00  0.00     0.168 HD
ENDBRANCH  22  24
ENDBRANCH  19  22
ENDBRANCH   8  18
TORSDOF 6
ENDMDL
