MODEL 1
REMARK minimizedAffinity -7.51241636
REMARK  8 active torsions:
REMARK  status: ('A' for Active; 'I' for Inactive)
REMARK    1  A    between atoms: C5_5  and  C6_6 
REMARK    2  A    between atoms: C6_6  and  O1_9 
REMARK    3  A    between atoms: C11_12  and  C12_13 
REMARK    4  A    between atoms: C12_13  and  C13_14 
REMARK    5  A    between atoms: C17_18  and  O2_19 
REMARK    6  A    between atoms: C18_20  and  C19_21 
REMARK    7  A    between atoms: C20_23  and  O4_24 
REMARK    8  A    between atoms: C21_25  and  C22_26 
ROOT
HETATM    1  C1  UNL     1       0.153  51.491 -18.280  1.00  0.00     0.019 C 
HETATM    2  C2  UNL     1      -0.702  51.979 -19.195  1.00  0.00    -0.068 C 
HETATM    3  C3  UNL     1      -0.219  52.942 -20.151  1.00  0.00     0.003 C 
HETATM    4  C4  UNL     1      -0.019  52.873 -21.475  1.00  0.00    -0.019 C 
HETATM    5  C5  UNL     1      -0.187  51.864 -22.615  1.00  0.00     0.042 C 
HETATM    6  C9  UNL     1      -0.571  50.381 -22.274  1.00  0.00     0.020 C 
HETATM    7  C10 UNL     1      -2.034  49.916 -22.006  1.00  0.00     0.030 C 
HETATM    8  C11 UNL     1      -2.919  49.581 -23.253  1.00  0.00     0.031 C 
HETATM    9  C16 UNL     1      -4.333  49.423 -22.722  1.00  0.00     0.015 A 
HETATM   10  C17 UNL     1      -5.481  49.966 -23.328  1.00  0.00     0.091 A 
HETATM   11  C18 UNL     1      -6.757  49.736 -22.782  1.00  0.00     0.069 A 
HETATM   12  C20 UNL     1      -6.901  48.987 -21.605  1.00  0.00     0.097 A 
HETATM   13  C21 UNL     1      -5.766  48.461 -20.982  1.00  0.00     0.070 A 
HETATM   14  C23 UNL     1      -4.494  48.676 -21.544  1.00  0.00     0.095 A 
HETATM   15  O6  UNL     1      -3.424  48.094 -20.924  1.00  0.00    -0.338 OA
HETATM   16  C24 UNL     1      -2.128  48.733 -20.971  1.00  0.00     0.068 C 
HETATM   17  C25 UNL     1      -1.131  47.579 -21.263  1.00  0.00     0.047 C 
HETATM   18  C26 UNL     1      -1.833  49.146 -19.502  1.00  0.00     0.039 C 
HETATM   19  C27 UNL     1      -2.655  50.289 -18.888  1.00  0.00     0.007 C 
HETATM   20  C28 UNL     1      -2.189  51.721 -19.168  1.00  0.00     0.038 C 
ENDROOT
BRANCH   5  21
HETATM   21  C6  UNL     1      -0.879  52.573 -23.842  1.00  0.00     0.057 C 
HETATM   22  C7  UNL     1      -0.146  53.833 -24.315  1.00  0.00     0.046 C 
HETATM   23  C8  UNL     1      -2.381  52.800 -23.638  1.00  0.00     0.046 C 
BRANCH  21  24
HETATM   24  O1  UNL     1      -0.809  51.689 -24.990  1.00  0.00    -0.390 OA
HETATM   25  H12 UNL     1      -1.312  50.880 -24.791  1.00  0.00     0.210 HD
ENDBRANCH  21  24
ENDBRANCH   5  21
BRANCH   8  26
HETATM   26  C12 UNL     1      -2.489  48.370 -24.120  1.00  0.00     0.014 C 
BRANCH  26  27
HETATM   27  C13 UNL     1      -2.701  48.565 -25.644  1.00  0.00    -0.022 C 
HETATM   28  C14 UNL     1      -4.133  48.190 -26.036  1.00  0.00     0.009 C 
HETATM   29  C15 UNL     1      -2.437  50.011 -26.074  1.00  0.00     0.009 C 
ENDBRANCH  26  27
ENDBRANCH   8  26
BRANCH  10  30
HETATM   30  O2  UNL     1      -5.421  50.714 -24.473  1.00  0.00    -0.359 OA
HETATM   31  H26 UNL     1      -4.509  50.928 -24.720  1.00  0.00     0.217 HD
ENDBRANCH  10  30
BRANCH  11  32
HETATM   32  C19 UNL     1      -7.950  50.268 -23.479  1.00  0.00     0.275 C 
HETATM   33  O3  UNL     1      -8.684  49.529 -24.131  1.00  0.00    -0.301 OA
ENDBRANCH  11  32
BRANCH  13  34
HETATM   34  C22 UNL     1      -5.848  47.691 -19.712  1.00  0.00     0.275 C 
HETATM   35  O5  UNL     1      -6.608  46.750 -19.522  1.00  0.00    -0.301 OA
ENDBRANCH  13  34
BRANCH  12  36
HETATM   36  O4  UNL     1      -8.137  48.725 -21.075  1.00  0.00    -0.359 OA
HETATM   37  H28 UNL     1      -8.830  49.185 -21.605  1.00  0.00     0.217 HD
ENDBRANCH  12  36
TORSDOF 8
ENDMDL
