MODEL 1
REMARK minimizedAffinity -8.73058319
REMARK  14 active torsions:
REMARK  status: ('A' for Active; 'I' for Inactive)
REMARK    1  A    between atoms: C4_4  and  C5_5 
REMARK    2  A    between atoms: C5_5  and  C6_6 
REMARK    3  A    between atoms: C6_6  and  C7_7 
REMARK    4  A    between atoms: C9_10  and  C10_11 
REMARK    5  A    between atoms: C12_13  and  C13_14 
REMARK    6  A    between atoms: C13_14  and  C14_15 
REMARK    7  A    between atoms: C14_15  and  C15_16 
REMARK    8  A    between atoms: C17_18  and  C18_19 
REMARK    9  A    between atoms: C18_19  and  C19_20 
REMARK   10  A    between atoms: C19_20  and  C20_21 
REMARK   11  A    between atoms: C20_21  and  O2_22 
REMARK   12  A    between atoms: C22_24  and  C24_26 
REMARK   13  A    between atoms: C27_30  and  O4_32 
REMARK   14  A    between atoms: C30_34  and  O5_35 
ROOT
HETATM    1  C15 UNL     1      -2.387  51.213 -24.484  1.00  0.00    -0.006 C 
HETATM    2  C16 UNL     1      -3.347  52.354 -24.031  1.00  0.00     0.019 C 
HETATM    3  C17 UNL     1      -0.905  51.774 -24.809  1.00  0.00     0.026 C 
HETATM    4  C21 UNL     1      -0.650  51.942 -26.315  1.00  0.00    -0.066 C 
HETATM    5  C22 UNL     1       0.483  51.603 -26.983  1.00  0.00    -0.021 C 
HETATM    6  C23 UNL     1       0.681  51.746 -28.468  1.00  0.00     0.052 C 
HETATM    7  C25 UNL     1      -1.861  52.480 -27.032  1.00  0.00     0.038 C 
HETATM    8  C26 UNL     1      -3.006  51.469 -26.992  1.00  0.00     0.042 C 
HETATM    9  C27 UNL     1      -2.988  50.509 -25.770  1.00  0.00     0.062 C 
HETATM   10  C28 UNL     1      -2.265  49.198 -26.141  1.00  0.00     0.046 C 
ENDROOT
BRANCH   1  11
HETATM   11  C14 UNL     1      -2.235  50.233 -23.257  1.00  0.00     0.016 C 
BRANCH  11  12
HETATM   12  C13 UNL     1      -0.984  50.383 -22.376  1.00  0.00     0.028 C 
BRANCH  12  13
HETATM   13  C12 UNL     1      -1.355  50.569 -20.923  1.00  0.00    -0.022 C 
HETATM   14  C10 UNL     1      -0.907  51.503 -20.059  1.00  0.00    -0.059 C 
HETATM   15  C11 UNL     1       0.066  52.594 -20.438  1.00  0.00     0.046 C 
BRANCH  14  16
HETATM   16  C9  UNL     1      -1.388  51.606 -18.620  1.00  0.00     0.153 C 
HETATM   17  O1  UNL     1      -0.398  51.046 -17.731  1.00  0.00    -0.368 OA
HETATM   18  C7  UNL     1      -1.063  50.459 -16.587  1.00  0.00     0.084 C 
HETATM   19  C8  UNL     1      -0.830  48.946 -16.646  1.00  0.00     0.049 C 
HETATM   20  C30 UNL     1      -2.554  50.835 -16.739  1.00  0.00     0.155 C 
HETATM   21  C29 UNL     1      -2.707  50.945 -18.240  1.00  0.00     0.071 C 
BRANCH  18  22
HETATM   22  C6  UNL     1      -0.492  51.099 -15.303  1.00  0.00     0.044 C 
BRANCH  22  23
HETATM   23  C5  UNL     1       0.859  51.819 -15.448  1.00  0.00     0.030 C 
BRANCH  23  24
HETATM   24  C4  UNL     1       1.990  51.106 -14.755  1.00  0.00    -0.025 C 
HETATM   25  C2  UNL     1       3.315  51.311 -14.895  1.00  0.00    -0.091 C 
HETATM   26  C1  UNL     1       4.302  50.490 -14.104  1.00  0.00     0.042 C 
HETATM   27  C3  UNL     1       3.952  52.327 -15.800  1.00  0.00     0.042 C 
ENDBRANCH  23  24
ENDBRANCH  22  23
ENDBRANCH  18  22
BRANCH  20  28
HETATM   28  O5  UNL     1      -3.448  49.895 -16.170  1.00  0.00    -0.392 OA
HETATM   29  H50 UNL     1      -4.351  50.149 -16.430  1.00  0.00     0.210 HD
ENDBRANCH  20  28
ENDBRANCH  14  16
ENDBRANCH  12  13
ENDBRANCH  11  12
ENDBRANCH   1  11
BRANCH   3  30
HETATM   30  C18 UNL     1      -0.552  53.054 -23.996  1.00  0.00     0.012 C 
BRANCH  30  31
HETATM   31  C19 UNL     1       0.699  53.815 -24.453  1.00  0.00     0.027 C 
BRANCH  31  32
HETATM   32  C20 UNL     1       0.415  55.251 -24.878  1.00  0.00     0.164 C 
BRANCH  32  33
HETATM   33  O2  UNL     1       0.216  55.310 -26.286  1.00  0.00    -0.401 OA
HETATM   34  H34 UNL     1       1.028  54.978 -26.708  1.00  0.00     0.209 HD
ENDBRANCH  32  33
ENDBRANCH  31  32
ENDBRANCH  30  31
ENDBRANCH   3  30
BRANCH   9  35
HETATM   35  O4  UNL     1      -4.349  50.101 -25.549  1.00  0.00    -0.389 OA
HETATM   36  H46 UNL     1      -4.925  50.880 -25.568  1.00  0.00     0.210 HD
ENDBRANCH   9  35
BRANCH   5  37
HETATM   37  C24 UNL     1       1.694  51.021 -26.318  1.00  0.00     0.265 C 
HETATM   38  O3  UNL     1       2.832  51.093 -26.762  1.00  0.00    -0.302 OA
ENDBRANCH   5  37
TORSDOF 14
ENDMDL
