MODEL 1
REMARK minimizedAffinity -7.97465563
REMARK CNNscore 0.509021223
REMARK CNNaffinity 7.26852369
REMARK  12 active torsions:
REMARK  status: ('A' for Active; 'I' for Inactive)
REMARK    1  A    between atoms: O1_2  and  C2_3 
REMARK    2  A    between atoms: C2_3  and  C5_6 
REMARK    3  A    between atoms: C6_7  and  C7_8 
REMARK    4  A    between atoms: C7_8  and  C8_9 
REMARK    5  A    between atoms: C8_9  and  C10_11 
REMARK    6  A    between atoms: C28_30  and  O3_31 
REMARK    7  A    between atoms: O3_31  and  C29_32 
REMARK    8  A    between atoms: C30_34  and  C31_35 
REMARK    9  A    between atoms: C31_35  and  O5_36 
REMARK   10  A    between atoms: C32_37  and  O6_38 
REMARK   11  A    between atoms: C33_39  and  O7_40 
REMARK   12  A    between atoms: C34_41  and  O8_42 
ROOT
HETATM    1  C10 UNL     1      -2.685  48.987 -23.774  1.00  0.00    -0.002 C 
HETATM    2  C11 UNL     1      -1.562  49.956 -23.288  1.00  0.00     0.006 C 
HETATM    3  C12 UNL     1      -1.597  49.984 -21.751  1.00  0.00     0.011 C 
HETATM    4  C13 UNL     1      -2.451  48.765 -21.357  1.00  0.00    -0.029 C 
HETATM    5  C14 UNL     1      -1.502  47.528 -21.429  1.00  0.00     0.016 C 
HETATM    6  C15 UNL     1      -3.127  48.863 -19.954  1.00  0.00     0.028 C 
HETATM    7  C16 UNL     1      -2.128  48.946 -18.808  1.00  0.00    -0.021 C 
HETATM    8  C17 UNL     1      -2.257  48.196 -17.698  1.00  0.00     0.008 C 
HETATM    9  C18 UNL     1      -3.424  47.226 -17.538  1.00  0.00     0.092 C 
HETATM   10  O2  UNL     1      -4.574  48.097 -17.375  1.00  0.00    -0.374 OA
HETATM   11  C19 UNL     1      -5.219  48.246 -18.643  1.00  0.00     0.179 C 
HETATM   12  C20 UNL     1      -4.235  47.739 -19.725  1.00  0.00    -0.004 C 
HETATM   13  C21 UNL     1      -5.056  47.383 -20.998  1.00  0.00     0.014 C 
HETATM   14  C22 UNL     1      -4.358  47.493 -22.366  1.00  0.00     0.011 C 
HETATM   15  C23 UNL     1      -3.551  48.795 -22.486  1.00  0.00    -0.032 C 
HETATM   16  C24 UNL     1      -4.540  50.002 -22.372  1.00  0.00     0.016 C 
HETATM   17  C25 UNL     1      -3.609  46.558 -18.931  1.00  0.00     0.036 C 
HETATM   18  C26 UNL     1      -4.411  45.264 -18.845  1.00  0.00     0.011 C 
HETATM   19  C27 UNL     1      -3.744  44.239 -17.925  1.00  0.00     0.033 C 
HETATM   20  C28 UNL     1      -2.854  44.836 -16.824  1.00  0.00     0.136 C 
HETATM   21  C35 UNL     1      -3.376  46.217 -16.325  1.00  0.00     0.014 C 
HETATM   22  C36 UNL     1      -4.772  46.046 -15.650  1.00  0.00     0.021 C 
HETATM   23  C37 UNL     1      -2.456  46.712 -15.178  1.00  0.00     0.021 C 
ENDROOT
BRANCH  20  24
HETATM   24  O3  UNL     1      -2.819  43.944 -15.707  1.00  0.00    -0.352 OA
BRANCH  24  25
HETATM   25  C29 UNL     1      -1.796  42.944 -15.718  1.00  0.00     0.292 C 
HETATM   26  O4  UNL     1      -2.358  41.677 -15.417  1.00  0.00    -0.348 OA
HETATM   27  C30 UNL     1      -1.390  40.604 -15.404  1.00  0.00     0.179 C 
HETATM   28  C32 UNL     1      -0.042  40.995 -14.765  1.00  0.00     0.180 C 
HETATM   29  C33 UNL     1      -0.209  42.200 -13.836  1.00  0.00     0.183 C 
HETATM   30  C34 UNL     1      -0.775  43.388 -14.638  1.00  0.00     0.204 C 
BRANCH  27  31
HETATM   31  C31 UNL     1      -2.062  39.458 -14.638  1.00  0.00     0.198 C 
BRANCH  31  32
HETATM   32  O5  UNL     1      -1.899  38.244 -15.378  1.00  0.00    -0.398 OA
HETATM   33  H48 UNL     1      -2.205  38.460 -16.279  1.00  0.00     0.209 HD
ENDBRANCH  31  32
ENDBRANCH  27  31
BRANCH  28  34
HETATM   34  O6  UNL     1       0.890  41.365 -15.798  1.00  0.00    -0.390 OA
HETATM   35  H50 UNL     1       1.306  40.548 -16.119  1.00  0.00     0.210 HD
ENDBRANCH  28  34
BRANCH  29  36
HETATM   36  O7  UNL     1      -1.026  41.840 -12.724  1.00  0.00    -0.390 OA
HETATM   37  H52 UNL     1      -1.205  42.648 -12.209  1.00  0.00     0.210 HD
ENDBRANCH  29  36
BRANCH  30  38
HETATM   38  O8  UNL     1       0.305  44.103 -15.279  1.00  0.00    -0.388 OA
HETATM   39  H54 UNL     1       0.914  43.412 -15.649  1.00  0.00     0.210 HD
ENDBRANCH  30  38
ENDBRANCH  24  25
ENDBRANCH  20  24
BRANCH   1  40
HETATM   40  C8  UNL     1      -3.356  49.516 -25.081  1.00  0.00    -0.010 C 
HETATM   41  C9  UNL     1      -4.412  48.544 -25.625  1.00  0.00     0.010 C 
BRANCH  40  42
HETATM   42  C7  UNL     1      -2.306  49.785 -26.198  1.00  0.00     0.031 C 
BRANCH  42  43
HETATM   43  C6  UNL     1      -1.215  50.793 -25.910  1.00  0.00    -0.027 C 
HETATM   44  C5  UNL     1      -0.061  50.951 -26.581  1.00  0.00     0.006 C 
BRANCH  44  45
HETATM   45  C2  UNL     1       1.028  51.983 -26.337  1.00  0.00     0.070 C 
HETATM   46  C3  UNL     1       2.458  51.542 -26.678  1.00  0.00     0.050 C 
HETATM   47  C4  UNL     1       0.990  52.350 -24.843  1.00  0.00     0.050 C 
BRANCH  45  48
HETATM   48  O1  UNL     1       0.667  53.193 -27.028  1.00  0.00    -0.382 OA
HETATM   49  C1  UNL     1       0.209  53.037 -28.363  1.00  0.00     0.202 C 
ENDBRANCH  45  48
ENDBRANCH  44  45
ENDBRANCH  42  43
ENDBRANCH  40  42
ENDBRANCH   1  40
TORSDOF 12
ENDMDL
