MODEL 1
REMARK minimizedAffinity -7.18348074
REMARK CNNscore 0.364465207
REMARK CNNaffinity 5.92679548
REMARK  4 active torsions:
REMARK  status: ('A' for Active; 'I' for Inactive)
REMARK    1  A    between atoms: C4_4  and  C5_5 
REMARK    2  A    between atoms: C5_5  and  C6_6 
REMARK    3  A    between atoms: C6_6  and  C7_7 
REMARK    4  A    between atoms: C7_7  and  C9_9 
ROOT
HETATM    1  C9  UNL     1       4.684   8.340  12.218  1.00  0.00    -0.001 C 
HETATM    2  C10 UNL     1       4.033   9.743  12.311  1.00  0.00     0.007 C 
HETATM    3  C11 UNL     1       4.968  10.613  13.181  1.00  0.00     0.024 C 
HETATM    4  C12 UNL     1       6.174   9.737  13.451  1.00  0.00     0.092 C 
HETATM    5  C13 UNL     1       7.259   9.885  12.349  1.00  0.00     0.272 C 
HETATM    6  O1  UNL     1       7.107  10.244  11.194  1.00  0.00    -0.264 OA
HETATM    7  O2  UNL     1       8.483   9.533  12.889  1.00  0.00    -0.305 OA
HETATM    8  C14 UNL     1       8.296   9.191  14.283  1.00  0.00     0.113 C 
HETATM    9  C15 UNL     1       7.950   7.663  14.321  1.00  0.00     0.043 C 
HETATM   10  C16 UNL     1       6.784   7.272  13.370  1.00  0.00     0.014 C 
HETATM   11  C17 UNL     1       5.609   8.274  13.469  1.00  0.00    -0.020 C 
HETATM   12  C18 UNL     1       4.826   7.969  14.766  1.00  0.00     0.017 C 
HETATM   13  C19 UNL     1       7.061   9.982  14.607  1.00  0.00     0.137 A 
HETATM   14  O3  UNL     1       6.573  10.094  15.931  1.00  0.00    -0.364 OA
HETATM   15  C20 UNL     1       7.116  11.298  15.356  1.00  0.00     0.162 A 
HETATM   16  C21 UNL     1       8.411  11.760  15.956  1.00  0.00     0.042 C 
HETATM   17  C22 UNL     1       9.599  11.207  15.141  1.00  0.00     0.014 C 
HETATM   18  C23 UNL     1      10.988  11.862  15.450  1.00  0.00     0.018 C 
HETATM   19  C24 UNL     1      10.927  13.385  15.194  1.00  0.00     0.023 C 
HETATM   20  C25 UNL     1      11.506  11.639  16.876  1.00  0.00     0.023 C 
HETATM   21  C26 UNL     1      12.032  11.286  14.479  1.00  0.00     0.135 C 
HETATM   22  O4  UNL     1      13.172  11.746  14.403  1.00  0.00    -0.297 OA
HETATM   23  C27 UNL     1      11.612  10.132  13.599  1.00  0.00     0.080 C 
HETATM   24  C28 UNL     1      10.882   9.097  14.441  1.00  0.00     0.020 C 
HETATM   25  C29 UNL     1       9.571   9.624  15.108  1.00  0.00    -0.004 C 
HETATM   26  C30 UNL     1       9.495   8.983  16.520  1.00  0.00     0.019 C 
ENDROOT
BRANCH   1  27
HETATM   27  C7  UNL     1       3.788   7.147  11.786  1.00  0.00    -0.014 C 
HETATM   28  C8  UNL     1       4.583   6.228  10.835  1.00  0.00     0.010 C 
BRANCH  27  29
HETATM   29  C6  UNL     1       2.369   7.358  11.214  1.00  0.00     0.008 C 
BRANCH  29  30
HETATM   30  C5  UNL     1       1.772   6.234  10.366  1.00  0.00     0.028 C 
BRANCH  30  31
HETATM   31  C4  UNL     1       2.052   6.462   8.903  1.00  0.00    -0.025 C 
HETATM   32  C2  UNL     1       1.466   7.341   8.069  1.00  0.00    -0.091 C 
HETATM   33  C1  UNL     1       1.903   7.435   6.629  1.00  0.00     0.042 C 
HETATM   34  C3  UNL     1       0.367   8.298   8.439  1.00  0.00     0.042 C 
ENDBRANCH  30  31
ENDBRANCH  29  30
ENDBRANCH  27  29
ENDBRANCH   1  27
TORSDOF 4
ENDMDL
