MODEL 1
REMARK minimizedAffinity -9.51176071
REMARK CNNscore 0.520362318
REMARK CNNaffinity 7.18141127
REMARK  15 active torsions:
REMARK  status: ('A' for Active; 'I' for Inactive)
REMARK    1  A    between atoms: C14_14  and  C15_15 
REMARK    2  A    between atoms: C15_15  and  C16_16 
REMARK    3  A    between atoms: C16_16  and  O1_17 
REMARK    4  A    between atoms: C16_16  and  C23_29 
REMARK    5  A    between atoms: O1_17  and  C17_18 
REMARK    6  A    between atoms: C18_20  and  C19_21 
REMARK    7  A    between atoms: C19_21  and  O3_22 
REMARK    8  A    between atoms: C20_23  and  O4_24 
REMARK    9  A    between atoms: C21_25  and  O5_26 
REMARK   10  A    between atoms: C22_27  and  O6_28 
REMARK   11  A    between atoms: C25_31  and  C26_32 
REMARK   12  A    between atoms: C26_32  and  O7_33 
REMARK   13  A    between atoms: O7_33  and  C27_34 
REMARK   14  A    between atoms: C27_34  and  C28_36 
REMARK   15  A    between atoms: C28_36  and  C29_37 
ROOT
HETATM    1  C16 UNL     1      -1.363  51.932 -22.608  1.00  0.00     0.153 C 
ENDROOT
BRANCH   1   2
HETATM    2  C15 UNL     1      -1.348  50.404 -22.841  1.00  0.00     0.046 C 
BRANCH   2   3
HETATM    3  C14 UNL     1      -2.658  49.674 -22.405  1.00  0.00     0.025 C 
HETATM    4  C2  UNL     1      -3.430  48.970 -23.532  1.00  0.00    -0.084 C 
HETATM    5  C1  UNL     1      -3.004  48.728 -24.781  1.00  0.00     0.014 C 
HETATM    6  C3  UNL     1      -4.802  48.494 -23.115  1.00  0.00     0.034 C 
HETATM    7  C4  UNL     1      -4.719  47.559 -21.908  1.00  0.00     0.010 C 
HETATM    8  C5  UNL     1      -3.938  48.205 -20.743  1.00  0.00     0.002 C 
HETATM    9  C6  UNL     1      -4.054  47.425 -19.386  1.00  0.00    -0.043 C 
HETATM   10  C12 UNL     1      -2.481  48.653 -21.187  1.00  0.00    -0.032 C 
HETATM   11  C7  UNL     1      -3.583  45.960 -19.453  1.00  0.00     0.015 C 
HETATM   12  C8  UNL     1      -5.536  47.383 -18.923  1.00  0.00     0.015 C 
HETATM   13  C9  UNL     1      -3.276  48.191 -18.288  1.00  0.00     0.009 C 
HETATM   14  C10 UNL     1      -1.851  48.550 -18.678  1.00  0.00     0.002 C 
HETATM   15  C11 UNL     1      -1.807  49.356 -19.974  1.00  0.00     0.010 C 
HETATM   16  C13 UNL     1      -1.571  47.488 -21.653  1.00  0.00     0.016 C 
ENDBRANCH   2   3
ENDBRANCH   1   2
BRANCH   1  17
HETATM   17  O1  UNL     1      -1.122  52.562 -23.878  1.00  0.00    -0.349 OA
BRANCH  17  18
HETATM   18  C17 UNL     1      -0.852  51.649 -24.940  1.00  0.00     0.292 C 
HETATM   19  O2  UNL     1       0.581  51.674 -25.101  1.00  0.00    -0.348 OA
HETATM   20  C18 UNL     1       0.996  51.313 -26.412  1.00  0.00     0.179 C 
HETATM   21  C20 UNL     1       0.582  52.394 -27.435  1.00  0.00     0.180 C 
HETATM   22  C21 UNL     1      -0.750  53.063 -27.040  1.00  0.00     0.183 C 
HETATM   23  C22 UNL     1      -1.616  52.079 -26.230  1.00  0.00     0.204 C 
BRANCH  20  24
HETATM   24  C19 UNL     1       2.514  51.106 -26.433  1.00  0.00     0.198 C 
BRANCH  24  25
HETATM   25  O3  UNL     1       3.141  52.046 -27.305  1.00  0.00    -0.398 OA
HETATM   26  H31 UNL     1       2.991  51.731 -28.220  1.00  0.00     0.209 HD
ENDBRANCH  24  25
ENDBRANCH  20  24
BRANCH  21  27
HETATM   27  O4  UNL     1       0.430  51.764 -28.716  1.00  0.00    -0.390 OA
HETATM   28  H33 UNL     1       1.342  51.528 -28.992  1.00  0.00     0.210 HD
ENDBRANCH  21  27
BRANCH  22  29
HETATM   29  O5  UNL     1      -0.510  54.276 -26.318  1.00  0.00    -0.390 OA
HETATM   30  H35 UNL     1      -0.177  54.036 -25.427  1.00  0.00     0.210 HD
ENDBRANCH  22  29
BRANCH  23  31
HETATM   31  O6  UNL     1      -1.949  50.915 -27.011  1.00  0.00    -0.388 OA
HETATM   32  H37 UNL     1      -1.619  51.058 -27.924  1.00  0.00     0.210 HD
ENDBRANCH  23  31
ENDBRANCH  17  18
ENDBRANCH   1  17
BRANCH   1  33
HETATM   33  C23 UNL     1      -0.367  52.436 -21.567  1.00  0.00    -0.057 C 
HETATM   34  C24 UNL     1       0.803  53.192 -22.147  1.00  0.00     0.046 C 
HETATM   35  C25 UNL     1      -0.488  52.139 -20.254  1.00  0.00     0.005 C 
BRANCH  35  36
HETATM   36  C26 UNL     1       0.427  52.489 -19.125  1.00  0.00     0.206 C 
BRANCH  36  37
HETATM   37  O7  UNL     1      -0.191  52.025 -17.920  1.00  0.00    -0.318 OA
BRANCH  37  38
HETATM   38  C27 UNL     1       0.623  51.399 -17.026  1.00  0.00     0.259 C 
HETATM   39  O8  UNL     1       0.652  50.196 -16.811  1.00  0.00    -0.265 OA
BRANCH  38  40
HETATM   40  C28 UNL     1       1.511  52.429 -16.359  1.00  0.00     0.115 C 
BRANCH  40  41
HETATM   41  C29 UNL     1       2.781  51.827 -15.740  1.00  0.00    -0.013 C 
HETATM   42  C30 UNL     1       3.984  52.719 -16.047  1.00  0.00     0.010 C 
HETATM   43  C31 UNL     1       2.639  51.650 -14.228  1.00  0.00     0.010 C 
ENDBRANCH  40  41
ENDBRANCH  38  40
ENDBRANCH  37  38
ENDBRANCH  36  37
ENDBRANCH  35  36
ENDBRANCH   1  33
TORSDOF 15
ENDMDL
