MODEL 1
REMARK minimizedAffinity -7.99594021
REMARK CNNscore 0.564810812
REMARK CNNaffinity 6.69105673
REMARK  5 active torsions:
REMARK  status: ('A' for Active; 'I' for Inactive)
REMARK    1  A    between atoms: C2_2  and  C4_4 
REMARK    2  A    between atoms: C10_11  and  O2_12 
REMARK    3  A    between atoms: C13_15  and  O3_16 
REMARK    4  A    between atoms: C32_39  and  O6_40 
REMARK    5  A    between atoms: C37_46  and  O8_47 
ROOT
HETATM    1  C4  UNL     1      -0.578   7.464  14.101  1.00  0.00     0.181 C 
HETATM    2  O1  UNL     1      -1.904   8.018  14.169  1.00  0.00    -0.370 OA
HETATM    3  C5  UNL     1      -1.977   9.466  14.161  1.00  0.00     0.163 C 
HETATM    4  C6  UNL     1      -3.381   9.761  14.656  1.00  0.00     0.036 C 
HETATM    5  C7  UNL     1      -3.629  11.225  15.011  1.00  0.00     0.016 C 
HETATM    6  C8  UNL     1      -2.607  11.818  16.012  1.00  0.00     0.008 C 
HETATM    7  C9  UNL     1      -2.630  10.953  17.311  1.00  0.00     0.020 C 
HETATM    8  C10 UNL     1      -1.178  11.624  15.373  1.00  0.00     0.103 C 
HETATM    9  C11 UNL     1      -0.103  12.223  16.302  1.00  0.00     0.047 C 
HETATM   10  C12 UNL     1      -0.330  13.668  16.743  1.00  0.00     0.073 C 
HETATM   11  C13 UNL     1      -1.628  14.328  16.248  1.00  0.00     0.179 C 
HETATM   12  O4  UNL     1      -1.777  15.614  16.871  1.00  0.00    -0.320 OA
HETATM   13  C14 UNL     1      -2.119  15.641  18.264  1.00  0.00     0.302 C 
HETATM   14  O5  UNL     1      -0.960  15.441  19.062  1.00  0.00    -0.346 OA
HETATM   15  C15 UNL     1      -0.650  16.419  20.072  1.00  0.00     0.064 C 
HETATM   16  C16 UNL     1       0.747  15.994  20.562  1.00  0.00     0.046 C 
HETATM   17  C17 UNL     1      -0.504  17.830  19.504  1.00  0.00     0.046 C 
HETATM   18  C18 UNL     1      -1.620  16.289  21.251  1.00  0.00     0.060 C 
HETATM   19  C19 UNL     1      -1.558  17.325  22.394  1.00  0.00     0.023 C 
HETATM   20  C20 UNL     1      -3.071  17.141  22.628  1.00  0.00     0.054 C 
HETATM   21  C21 UNL     1      -3.568  16.200  23.677  1.00  0.00    -0.077 C 
HETATM   22  C22 UNL     1      -2.924  16.064  24.850  1.00  0.00     0.015 C 
HETATM   23  C23 UNL     1      -4.869  15.488  23.371  1.00  0.00     0.074 C 
HETATM   24  C24 UNL     1      -4.878  14.759  22.037  1.00  0.00    -0.022 A 
HETATM   25  C25 UNL     1      -5.688  13.642  21.809  1.00  0.00     0.043 A 
HETATM   26 CL1  UNL     1      -6.745  13.044  23.039  1.00  0.00    -0.084 Cl
HETATM   27  C26 UNL     1      -5.690  12.975  20.578  1.00  0.00     0.054 A 
HETATM   28  C27 UNL     1      -4.814  13.443  19.589  1.00  0.00     0.045 A 
HETATM   29  N1  UNL     1      -4.608  12.981  18.304  1.00  0.00    -0.357 N 
HETATM   30  C28 UNL     1      -3.547  13.623  17.736  1.00  0.00     0.036 C 
HETATM   31  C29 UNL     1      -3.176  14.644  18.597  1.00  0.00     0.033 C 
HETATM   32  C30 UNL     1      -3.970  14.540  19.779  1.00  0.00     0.014 A 
HETATM   33  C31 UNL     1      -4.055  15.262  20.995  1.00  0.00    -0.001 A 
HETATM   34  C32 UNL     1      -3.172  16.565  21.152  1.00  0.00     0.100 C 
HETATM   35  C33 UNL     1      -2.949  13.397  16.337  1.00  0.00     0.066 C 
HETATM   36  C34 UNL     1      -4.015  14.024  15.360  1.00  0.00     0.028 C 
HETATM   37  C35 UNL     1      -0.916  10.150  15.016  1.00  0.00     0.147 A 
HETATM   38  O7  UNL     1       0.420  10.024  14.445  1.00  0.00    -0.360 OA
HETATM   39  C36 UNL     1       0.175   9.299  15.634  1.00  0.00     0.194 A 
HETATM   40  C37 UNL     1       0.087   7.803  15.465  1.00  0.00     0.183 C 
HETATM   41  H37 UNL     1      -5.136  12.231  17.888  1.00  0.00     0.166 HD
ENDROOT
BRANCH   1  42
HETATM   42  C2  UNL     1      -0.743   5.994  13.736  1.00  0.00    -0.062 C 
HETATM   43  C1  UNL     1       0.243   5.188  13.287  1.00  0.00     0.016 C 
HETATM   44  C3  UNL     1      -2.135   5.439  13.882  1.00  0.00     0.045 C 
ENDBRANCH   1  42
BRANCH  40  45
HETATM   45  O8  UNL     1      -0.728   7.313  16.552  1.00  0.00    -0.390 OA
HETATM   46  H44 UNL     1      -1.629   7.255  16.176  1.00  0.00     0.210 HD
ENDBRANCH  40  45
BRANCH   8  47
HETATM   47  O2  UNL     1      -1.086  12.305  14.130  1.00  0.00    -0.386 OA
HETATM   48  H15 UNL     1      -0.233  12.052  13.723  1.00  0.00     0.210 HD
ENDBRANCH   8  47
BRANCH  11  49
HETATM   49  O3  UNL     1      -1.459  14.694  14.864  1.00  0.00    -0.364 OA
HETATM   50  H20 UNL     1      -0.569  14.459  14.581  1.00  0.00     0.213 HD
ENDBRANCH  11  49
BRANCH  34  51
HETATM   51  O6  UNL     1      -3.580  17.590  20.208  1.00  0.00    -0.384 OA
HETATM   52  H38 UNL     1      -4.535  17.670  20.369  1.00  0.00     0.211 HD
ENDBRANCH  34  51
TORSDOF 5
ENDMDL
