MODEL 1
REMARK minimizedAffinity -8.36222267
REMARK  13 active torsions:
REMARK  status: ('A' for Active; 'I' for Inactive)
REMARK    1  A    between atoms: C2_2  and  C3_3 
REMARK    2  A    between atoms: C2_2  and  C14_14 
REMARK    3  A    between atoms: C4_4  and  C5_5 
REMARK    4  A    between atoms: C6_6  and  C8_8 
REMARK    5  A    between atoms: C8_8  and  C9_9 
REMARK    6  A    between atoms: C9_9  and  C10_10 
REMARK    7  A    between atoms: C18_18  and  O1_19 
REMARK    8  A    between atoms: C19_20  and  C20_21 
REMARK    9  A    between atoms: C20_21  and  C21_22 
REMARK   10  A    between atoms: C21_22  and  C22_23 
REMARK   11  A    between atoms: C22_23  and  O2_24 
REMARK   12  A    between atoms: C24_26  and  C26_28 
REMARK   13  A    between atoms: C29_32  and  O4_34 
ROOT
HETATM    1  C14 UNL     1      -1.834   9.977  16.796  1.00  0.00     0.047 C 
HETATM    2  C15 UNL     1      -0.780  10.755  15.994  1.00  0.00     0.013 C 
HETATM    3  C16 UNL     1       0.098   9.719  15.294  1.00  0.00     0.017 C 
HETATM    4  C17 UNL     1      -0.720   8.403  15.201  1.00  0.00     0.024 C 
HETATM    5  C18 UNL     1      -1.429   8.488  16.613  1.00  0.00     0.138 C 
HETATM    6  C19 UNL     1      -1.824   8.394  14.046  1.00  0.00     0.029 C 
HETATM    7  C23 UNL     1      -2.410   7.015  13.662  1.00  0.00    -0.066 C 
HETATM    8  C24 UNL     1      -3.693   6.820  13.245  1.00  0.00    -0.021 C 
HETATM    9  C25 UNL     1      -4.261   5.504  12.765  1.00  0.00     0.052 C 
HETATM   10  C27 UNL     1      -1.482   5.820  13.822  1.00  0.00     0.038 C 
HETATM   11  C28 UNL     1      -0.589   5.864  15.051  1.00  0.00     0.042 C 
HETATM   12  C29 UNL     1       0.231   7.150  15.145  1.00  0.00     0.065 C 
HETATM   13  C30 UNL     1       1.284   7.172  14.026  1.00  0.00     0.047 C 
ENDROOT
BRANCH   5  14
HETATM   14  O1  UNL     1      -2.581   7.658  16.713  1.00  0.00    -0.394 OA
HETATM   15  H26 UNL     1      -2.926   7.761  17.618  1.00  0.00     0.210 HD
ENDBRANCH   5  14
BRANCH   6  16
HETATM   16  C20 UNL     1      -1.629   9.346  12.822  1.00  0.00     0.012 C 
BRANCH  16  17
HETATM   17  C21 UNL     1      -1.459   8.805  11.407  1.00  0.00     0.027 C 
BRANCH  17  18
HETATM   18  C22 UNL     1      -0.100   8.178  11.126  1.00  0.00     0.164 C 
BRANCH  18  19
HETATM   19  O2  UNL     1       0.456   8.761   9.953  1.00  0.00    -0.401 OA
HETATM   20  H34 UNL     1       0.594   9.707  10.130  1.00  0.00     0.209 HD
ENDBRANCH  18  19
ENDBRANCH  17  18
ENDBRANCH  16  17
ENDBRANCH   6  16
BRANCH  12  21
HETATM   21  O4  UNL     1       0.990   7.044  16.366  1.00  0.00    -0.389 OA
HETATM   22  H46 UNL     1       1.772   7.618  16.308  1.00  0.00     0.210 HD
ENDBRANCH  12  21
BRANCH   1  23
HETATM   23  C2  UNL     1      -2.011  10.517  18.218  1.00  0.00    -0.061 C 
HETATM   24  C1  UNL     1      -3.149  10.398  18.926  1.00  0.00     0.019 C 
BRANCH  23  25
HETATM   25  C3  UNL     1      -0.896  11.228  18.854  1.00  0.00     0.007 C 
HETATM   26  C4  UNL     1      -0.025  10.740  19.753  1.00  0.00     0.001 C 
BRANCH  26  27
HETATM   27  C5  UNL     1       1.047  11.539  20.315  1.00  0.00     0.002 C 
HETATM   28  C6  UNL     1       2.077  11.102  21.066  1.00  0.00    -0.084 C 
HETATM   29  C7  UNL     1       2.296   9.679  21.516  1.00  0.00     0.043 C 
BRANCH  28  30
HETATM   30  C8  UNL     1       3.123  12.089  21.562  1.00  0.00     0.037 C 
BRANCH  30  31
HETATM   31  C9  UNL     1       3.652  11.739  22.958  1.00  0.00     0.031 C 
BRANCH  31  32
HETATM   32  C10 UNL     1       5.149  11.571  22.953  1.00  0.00    -0.024 C 
HETATM   33  C11 UNL     1       6.085  12.538  23.006  1.00  0.00    -0.091 C 
HETATM   34  C12 UNL     1       7.550  12.190  23.043  1.00  0.00     0.042 C 
HETATM   35  C13 UNL     1       5.800  14.015  23.025  1.00  0.00     0.042 C 
ENDBRANCH  31  32
ENDBRANCH  30  31
ENDBRANCH  28  30
ENDBRANCH  26  27
ENDBRANCH  23  25
ENDBRANCH   1  23
BRANCH   8  36
HETATM   36  C26 UNL     1      -4.717   7.919  13.200  1.00  0.00     0.265 C 
HETATM   37  O3  UNL     1      -5.920   7.718  13.331  1.00  0.00    -0.302 OA
ENDBRANCH   8  36
TORSDOF 13
ENDMDL
