MODEL 1
REMARK minimizedAffinity -9.99038029
REMARK CNNscore 0.590548635
REMARK CNNaffinity 7.12176514
REMARK  8 active torsions:
REMARK  status: ('A' for Active; 'I' for Inactive)
REMARK    1  A    between atoms: C2_2  and  C3_3 
REMARK    2  A    between atoms: C2_2  and  C27_30 
REMARK    3  A    between atoms: C3_3  and  C4_4 
REMARK    4  A    between atoms: C4_4  and  C5_5 
REMARK    5  A    between atoms: C5_5  and  C7_7 
REMARK    6  A    between atoms: C26_28  and  O3_29 
REMARK    7  A    between atoms: C27_30  and  C29_32 
REMARK    8  A    between atoms: C29_32  and  O5_34 
ROOT
HETATM    1  C7  UNL     1      -0.085  50.417 -18.503  1.00  0.00    -0.002 C 
HETATM    2  C8  UNL     1      -1.020  49.256 -18.063  1.00  0.00     0.006 C 
HETATM    3  C9  UNL     1      -1.797  48.821 -19.314  1.00  0.00     0.010 C 
HETATM    4  C10 UNL     1      -1.084  49.535 -20.464  1.00  0.00     0.027 C 
HETATM    5  C11 UNL     1      -1.727  49.645 -21.828  1.00  0.00    -0.036 C 
HETATM    6  C12 UNL     1      -1.389  50.646 -22.679  1.00  0.00     0.002 C 
HETATM    7  C13 UNL     1      -0.391  51.692 -22.210  1.00  0.00     0.157 C 
HETATM    8  O1  UNL     1      -0.060  52.626 -22.940  1.00  0.00    -0.293 OA
HETATM    9  C14 UNL     1       0.232  51.576 -20.827  1.00  0.00     0.093 C 
HETATM   10  C15 UNL     1      -0.721  50.907 -19.838  1.00  0.00    -0.026 C 
HETATM   11  C16 UNL     1      -1.952  51.816 -19.612  1.00  0.00     0.016 C 
HETATM   12  C17 UNL     1      -1.979  50.789 -24.101  1.00  0.00    -0.008 C 
HETATM   13  C18 UNL     1      -2.998  51.960 -24.034  1.00  0.00     0.021 C 
HETATM   14  C19 UNL     1      -0.890  51.120 -25.172  1.00  0.00     0.022 C 
HETATM   15  C20 UNL     1      -1.143  50.566 -26.575  1.00  0.00     0.080 C 
HETATM   16  C21 UNL     1      -2.613  50.421 -26.871  1.00  0.00     0.131 C 
HETATM   17  O2  UNL     1      -3.111  50.883 -27.899  1.00  0.00    -0.298 OA
HETATM   18  C22 UNL     1      -3.439  49.608 -25.885  1.00  0.00     0.056 C 
HETATM   19  C23 UNL     1      -3.780  48.266 -26.533  1.00  0.00     0.018 C 
HETATM   20  C24 UNL     1      -2.669  49.452 -24.552  1.00  0.00     0.012 C 
HETATM   21  C25 UNL     1      -3.553  48.882 -23.435  1.00  0.00     0.042 C 
HETATM   22  C26 UNL     1      -2.712  48.564 -22.200  1.00  0.00     0.148 C 
ENDROOT
BRANCH   1  23
HETATM   23  C5  UNL     1       0.295  51.369 -17.335  1.00  0.00    -0.014 C 
HETATM   24  C6  UNL     1       1.127  52.604 -17.709  1.00  0.00     0.010 C 
BRANCH  23  25
HETATM   25  C4  UNL     1       0.972  50.680 -16.126  1.00  0.00     0.009 C 
BRANCH  25  26
HETATM   26  C3  UNL     1       1.445  51.598 -14.985  1.00  0.00     0.034 C 
BRANCH  26  27
HETATM   27  C2  UNL     1       2.931  51.666 -14.645  1.00  0.00    -0.075 C 
HETATM   28  C1  UNL     1       3.858  52.159 -15.488  1.00  0.00     0.015 C 
BRANCH  27  29
HETATM   29  C27 UNL     1       3.277  51.067 -13.275  1.00  0.00     0.107 C 
HETATM   30  C28 UNL     1       2.150  51.090 -12.238  1.00  0.00     0.026 C 
BRANCH  29  31
HETATM   31  C29 UNL     1       3.783  49.631 -13.414  1.00  0.00     0.147 C 
HETATM   32  O4  UNL     1       3.131  48.601 -13.471  1.00  0.00    -0.650 OA
BRANCH  31  33
HETATM   33  O5  UNL     1       5.133  49.571 -13.481  1.00  0.00    -0.776 OA
HETATM   34  H42 UNL     1       5.323  48.613 -13.561  1.00  0.00     0.167 HD
ENDBRANCH  31  33
ENDBRANCH  29  31
ENDBRANCH  27  29
ENDBRANCH  26  27
ENDBRANCH  25  26
ENDBRANCH  23  25
ENDBRANCH   1  23
BRANCH  22  35
HETATM   35  O3  UNL     1      -1.976  47.373 -22.467  1.00  0.00    -0.391 OA
HETATM   36  H37 UNL     1      -1.514  47.117 -21.651  1.00  0.00     0.210 HD
ENDBRANCH  22  35
TORSDOF 8
ENDMDL
