MODEL 1
REMARK minimizedAffinity -9.33932209
REMARK CNNscore 0.539502501
REMARK CNNaffinity 6.74683523
REMARK  12 active torsions:
REMARK  status: ('A' for Active; 'I' for Inactive)
REMARK    1  A    between atoms: C3_3  and  O1_4 
REMARK    2  A    between atoms: N1_14  and  O2_16 
REMARK    3  A    between atoms: O2_16  and  C13_17 
REMARK    4  A    between atoms: C13_17  and  C14_18 
REMARK       I    between atoms: C14_18  and  N2_20 
REMARK    5  A    between atoms: N2_20  and  C15_21 
REMARK    6  A    between atoms: C15_21  and  C16_22 
REMARK    7  A    between atoms: C15_21  and  C26_36 
REMARK       I    between atoms: C16_22  and  N3_24 
REMARK    8  A    between atoms: N3_24  and  C17_25 
REMARK    9  A    between atoms: C17_25  and  C18_26 
REMARK   10  A    between atoms: C17_25  and  C25_33 
REMARK   11  A    between atoms: C18_26  and  C19_27 
REMARK   12  A    between atoms: C25_33  and  O6_35 
ROOT
HETATM    1  C1  UNL     1       2.522  51.847 -26.262  1.00  0.00     0.015 C 
HETATM    2  C2  UNL     1       1.365  52.182 -26.235  1.00  0.00    -0.078 C 
HETATM    3  C3  UNL     1      -0.044  52.636 -26.213  1.00  0.00     0.128 C 
HETATM    4  C4  UNL     1      -0.633  52.567 -27.619  1.00  0.00     0.052 C 
HETATM    5  C5  UNL     1      -1.023  51.105 -27.764  1.00  0.00     0.010 C 
HETATM    6  C6  UNL     1      -1.641  50.709 -26.400  1.00  0.00     0.002 C 
HETATM    7  C7  UNL     1      -3.194  50.750 -26.474  1.00  0.00    -0.004 C 
HETATM    8  C8  UNL     1      -3.813  49.695 -27.416  1.00  0.00     0.010 C 
HETATM    9  C9  UNL     1      -4.017  48.336 -26.775  1.00  0.00     0.035 C 
HETATM   10  C10 UNL     1      -4.866  48.460 -25.539  1.00  0.00    -0.069 C 
HETATM   11  C11 UNL     1      -6.020  47.779 -25.435  1.00  0.00     0.030 C 
HETATM   12  C12 UNL     1      -6.837  47.814 -24.194  1.00  0.00     0.032 C 
HETATM   13  N1  UNL     1      -8.033  47.297 -24.242  1.00  0.00    -0.271 N 
ATOM     14  H1  UNL     1      -8.442  46.881 -25.079  1.00  0.00     0.194 HD
HETATM   15  C29 UNL     1      -6.197  48.426 -22.967  1.00  0.00     0.060 C 
HETATM   16  C30 UNL     1      -5.407  49.665 -23.374  1.00  0.00     0.020 C 
HETATM   17  C31 UNL     1      -4.319  49.389 -24.458  1.00  0.00    -0.016 C 
HETATM   18  C32 UNL     1      -3.133  48.657 -23.789  1.00  0.00     0.020 C 
HETATM   19  C33 UNL     1      -3.922  50.781 -25.100  1.00  0.00     0.002 C 
HETATM   20  C34 UNL     1      -3.262  51.758 -24.102  1.00  0.00     0.007 C 
HETATM   21  C35 UNL     1      -2.139  52.593 -24.714  1.00  0.00     0.014 C 
HETATM   22  C36 UNL     1      -1.023  51.729 -25.370  1.00  0.00     0.003 C 
HETATM   23  C37 UNL     1      -0.263  50.979 -24.254  1.00  0.00     0.020 C 
ENDROOT
BRANCH   3  24
HETATM   24  O1  UNL     1      -0.055  53.986 -25.763  1.00  0.00    -0.377 OA
HETATM   25  H2  UNL     1       0.660  54.448 -26.237  1.00  0.00     0.211 HD
ENDBRANCH   3  24
BRANCH  13  26
HETATM   26  O2  UNL     1      -8.688  47.380 -23.005  1.00  0.00    -0.271 OA
BRANCH  26  27
HETATM   27  C13 UNL     1      -9.407  46.172 -22.767  1.00  0.00     0.303 C 
BRANCH  27  28
HETATM   28  C14 UNL     1     -10.905  46.423 -22.666  1.00  0.00     0.244 C 
HETATM   29  O3  UNL     1     -11.511  47.112 -23.484  1.00  0.00    -0.271 OA
HETATM   30  N2  UNL     1     -11.528  45.755 -21.631  1.00  0.00    -0.346 N 
HETATM   31  H16 UNL     1     -10.914  45.526 -20.850  1.00  0.00     0.163 HD
BRANCH  30  32
HETATM   32  C15 UNL     1     -12.929  46.024 -21.310  1.00  0.00     0.180 C 
BRANCH  32  33
HETATM   33  C16 UNL     1     -13.778  45.609 -22.532  1.00  0.00     0.241 C 
HETATM   34  O4  UNL     1     -14.010  44.432 -22.816  1.00  0.00    -0.271 OA
HETATM   35  N3  UNL     1     -14.262  46.660 -23.276  1.00  0.00    -0.345 N 
HETATM   36  H18 UNL     1     -13.846  47.577 -23.153  1.00  0.00     0.163 HD
BRANCH  35  37
HETATM   37  C17 UNL     1     -15.034  46.454 -24.504  1.00  0.00     0.186 C 
BRANCH  37  38
HETATM   38  C18 UNL     1     -16.369  47.221 -24.474  1.00  0.00     0.074 C 
BRANCH  38  39
HETATM   39  C19 UNL     1     -17.592  46.359 -24.694  1.00  0.00    -0.056 A 
HETATM   40  C20 UNL     1     -17.448  44.995 -24.993  1.00  0.00     0.007 A 
HETATM   41  C21 UNL     1     -18.573  44.188 -25.181  1.00  0.00     0.001 A 
HETATM   42  C22 UNL     1     -19.852  44.735 -25.069  1.00  0.00     0.000 A 
HETATM   43  C23 UNL     1     -20.005  46.090 -24.774  1.00  0.00     0.001 A 
HETATM   44  C24 UNL     1     -18.881  46.900 -24.588  1.00  0.00     0.007 A 
ENDBRANCH  38  39
ENDBRANCH  37  38
BRANCH  37  45
HETATM   45  C25 UNL     1     -14.241  46.796 -25.769  1.00  0.00     0.163 C 
HETATM   46  O5  UNL     1     -14.493  46.407 -26.900  1.00  0.00    -0.648 OA
BRANCH  45  47
HETATM   47  O6  UNL     1     -13.189  47.617 -25.568  1.00  0.00    -0.775 OA
HETATM   48  H27 UNL     1     -12.795  47.711 -26.459  1.00  0.00     0.167 HD
ENDBRANCH  45  47
ENDBRANCH  37  45
ENDBRANCH  35  37
ENDBRANCH  32  33
BRANCH  32  49
HETATM   49  C26 UNL     1     -13.124  47.498 -20.883  1.00  0.00     0.009 C 
HETATM   50  C27 UNL     1     -14.536  47.820 -20.384  1.00  0.00     0.012 C 
HETATM   51  C28 UNL     1     -12.089  47.929 -19.840  1.00  0.00     0.012 C 
ENDBRANCH  32  49
ENDBRANCH  30  32
ENDBRANCH  27  28
ENDBRANCH  26  27
ENDBRANCH  13  26
TORSDOF 12
ENDMDL
