MODEL 1
REMARK minimizedAffinity -8.1614933
REMARK  8 active torsions:
REMARK  status: ('A' for Active; 'I' for Inactive)
REMARK    1  A    between atoms: C2_2  and  O2_4 
REMARK    2  A    between atoms: O2_4  and  C3_5 
REMARK    3  A    between atoms: C5_7  and  O3_8 
REMARK    4  A    between atoms: C14_17  and  C15_18 
REMARK    5  A    between atoms: C15_18  and  O5_20 
REMARK    6  A    between atoms: O5_20  and  C16_21 
REMARK    7  A    between atoms: C16_21  and  C17_22 
REMARK    8  A    between atoms: C17_22  and  N1_23 
ROOT
HETATM    1  C3  UNL     1      -7.869   7.251  14.856  1.00  0.00     0.097 C 
HETATM    2  C4  UNL     1      -8.051   8.650  15.478  1.00  0.00     0.050 C 
HETATM    3  C5  UNL     1      -8.055   6.216  16.030  1.00  0.00     0.153 C 
HETATM    4  C6  UNL     1      -7.307   4.887  15.848  1.00  0.00     0.035 C 
HETATM    5  C7  UNL     1      -7.107   4.510  14.386  1.00  0.00     0.012 C 
HETATM    6  C8  UNL     1      -6.310   5.573  13.563  1.00  0.00    -0.033 C 
HETATM    7  C9  UNL     1      -6.860   5.516  12.115  1.00  0.00     0.016 C 
HETATM    8  C10 UNL     1      -4.760   5.280  13.539  1.00  0.00     0.006 C 
HETATM    9  C11 UNL     1      -4.345   3.873  13.032  1.00  0.00     0.010 C 
HETATM   10  C12 UNL     1      -3.377   3.889  11.844  1.00  0.00     0.035 C 
HETATM   11  C13 UNL     1      -2.169   4.783  12.059  1.00  0.00    -0.070 C 
HETATM   12  C14 UNL     1      -0.971   4.370  11.590  1.00  0.00     0.085 C 
HETATM   13  C20 UNL     1      -2.445   6.095  12.794  1.00  0.00     0.022 C 
HETATM   14  C21 UNL     1      -1.857   6.039  14.215  1.00  0.00     0.015 C 
HETATM   15  C22 UNL     1      -3.969   6.386  12.785  1.00  0.00     0.068 C 
HETATM   16  C23 UNL     1      -4.328   7.786  13.279  1.00  0.00     0.132 C 
HETATM   17  O6  UNL     1      -3.484   8.661  13.462  1.00  0.00    -0.298 OA
HETATM   18  C24 UNL     1      -5.808   8.096  13.425  1.00  0.00     0.087 C 
HETATM   19  C25 UNL     1      -6.456   6.988  14.258  1.00  0.00     0.038 C 
ENDROOT
BRANCH  12  20
HETATM   20  C15 UNL     1       0.364   5.011  11.622  1.00  0.00     0.283 C 
HETATM   21  O4  UNL     1       0.916   5.281  12.680  1.00  0.00    -0.260 OA
BRANCH  20  22
HETATM   22  O5  UNL     1       0.879   5.198  10.391  1.00  0.00    -0.316 OA
BRANCH  22  23
HETATM   23  C16 UNL     1       1.786   6.308  10.251  1.00  0.00     0.209 C 
BRANCH  23  24
HETATM   24  C17 UNL     1       2.423   6.307   8.852  1.00  0.00     0.298 C 
BRANCH  24  25
HETATM   25  N1  UNL     1       1.990   7.430   7.998  1.00  0.00     0.082 N 
HETATM   26  C18 UNL     1       1.817   6.968   6.618  1.00  0.00     0.309 C 
HETATM   27  C19 UNL     1       2.956   8.532   8.029  1.00  0.00     0.309 C 
ENDBRANCH  24  25
ENDBRANCH  23  24
ENDBRANCH  22  23
ENDBRANCH  20  22
ENDBRANCH  12  20
BRANCH   1  28
HETATM   28  O2  UNL     1      -8.955   6.969  13.923  1.00  0.00    -0.308 OA
BRANCH  28  29
HETATM   29  C2  UNL     1     -10.225   7.396  14.154  1.00  0.00     0.255 C 
HETATM   30  C1  UNL     1     -10.263   8.894  14.146  1.00  0.00     0.126 C 
HETATM   31  O1  UNL     1     -11.201   6.687  14.341  1.00  0.00    -0.266 OA
ENDBRANCH  28  29
ENDBRANCH   1  28
BRANCH   3  32
HETATM   32  O3  UNL     1      -9.444   5.945  16.246  1.00  0.00    -0.393 OA
HETATM   33  H8  UNL     1      -9.849   5.878  15.361  1.00  0.00     0.210 HD
ENDBRANCH   3  32
TORSDOF 8
ENDMDL
