MODEL 1
REMARK minimizedAffinity -7.5544157
REMARK CNNscore 0.845736444
REMARK CNNaffinity 6.4661355
REMARK  9 active torsions:
REMARK  status: ('A' for Active; 'I' for Inactive)
REMARK    1  A    between atoms: C2_2  and  C4_4 
REMARK    2  A    between atoms: C4_4  and  O1_6 
REMARK    3  A    between atoms: C4_4  and  C6_7 
REMARK    4  A    between atoms: C7_9  and  C8_10 
REMARK    5  A    between atoms: C8_10  and  O3_12 
REMARK    6  A    between atoms: C8_10  and  C10_13 
REMARK    7  A    between atoms: C13_16  and  O4_17 
REMARK    8  A    between atoms: C19_24  and  O6_25 
REMARK    9  A    between atoms: C22_28  and  C23_29 
ROOT
HETATM    1  C10 UNL     1     -12.800  45.514 -26.292  1.00  0.00     0.034 C 
HETATM    2  C11 UNL     1     -13.157  46.945 -25.786  1.00  0.00     0.012 C 
HETATM    3  C12 UNL     1     -14.673  46.975 -25.520  1.00  0.00     0.044 C 
HETATM    4  C13 UNL     1     -15.091  45.505 -25.580  1.00  0.00     0.089 C 
HETATM    5  C14 UNL     1     -16.544  45.102 -25.713  1.00  0.00    -0.037 C 
HETATM    6  C15 UNL     1     -17.538  45.995 -25.598  1.00  0.00     0.057 C 
HETATM    7  C16 UNL     1     -18.935  45.554 -25.441  1.00  0.00     0.154 C 
HETATM    8  O5  UNL     1     -19.828  46.398 -25.405  1.00  0.00    -0.293 OA
HETATM    9  C17 UNL     1     -19.212  44.081 -25.222  1.00  0.00     0.071 C 
HETATM   10  C18 UNL     1     -19.117  43.746 -23.727  1.00  0.00     0.045 C 
HETATM   11  C19 UNL     1     -19.551  42.304 -23.451  1.00  0.00     0.119 C 
HETATM   12  C20 UNL     1     -19.659  41.448 -24.712  1.00  0.00     0.032 C 
HETATM   13  C21 UNL     1     -18.475  41.672 -25.647  1.00  0.00     0.014 C 
HETATM   14  C22 UNL     1     -18.308  43.164 -26.121  1.00  0.00    -0.018 C 
HETATM   15  C29 UNL     1     -16.777  43.590 -25.849  1.00  0.00     0.027 C 
HETATM   16  C30 UNL     1     -15.764  42.943 -26.829  1.00  0.00     0.011 C 
HETATM   17  C31 UNL     1     -14.305  43.401 -26.664  1.00  0.00     0.014 C 
HETATM   18  C32 UNL     1     -14.192  44.940 -26.718  1.00  0.00    -0.002 C 
HETATM   19  C33 UNL     1     -14.622  45.458 -28.114  1.00  0.00     0.019 C 
ENDROOT
BRANCH   1  20
HETATM   20  C8  UNL     1     -11.592  45.513 -27.274  1.00  0.00     0.087 C 
HETATM   21  C9  UNL     1     -10.923  44.139 -27.391  1.00  0.00     0.049 C 
BRANCH  20  22
HETATM   22  C7  UNL     1     -10.546  46.502 -26.784  1.00  0.00     0.188 A 
HETATM   23  C6  UNL     1      -9.056  46.246 -26.889  1.00  0.00     0.188 A 
HETATM   24  O2  UNL     1      -9.767  46.046 -25.661  1.00  0.00    -0.369 OA
BRANCH  23  25
HETATM   25  C4  UNL     1      -8.035  47.368 -26.916  1.00  0.00     0.086 C 
HETATM   26  C5  UNL     1      -7.170  47.440 -25.648  1.00  0.00     0.049 C 
BRANCH  25  27
HETATM   27  C2  UNL     1      -7.182  47.270 -28.225  1.00  0.00     0.014 C 
HETATM   28  C1  UNL     1      -7.159  45.859 -28.827  1.00  0.00     0.012 C 
HETATM   29  C3  UNL     1      -5.741  47.774 -28.065  1.00  0.00     0.012 C 
ENDBRANCH  25  27
BRANCH  25  30
HETATM   30  O1  UNL     1      -8.809  48.577 -26.978  1.00  0.00    -0.387 OA
HETATM   31  H11 UNL     1      -8.218  49.326 -26.786  1.00  0.00     0.210 HD
ENDBRANCH  25  30
ENDBRANCH  23  25
ENDBRANCH  20  22
BRANCH  20  32
HETATM   32  O3  UNL     1     -12.018  45.883 -28.588  1.00  0.00    -0.387 OA
HETATM   33  H17 UNL     1     -11.202  46.067 -29.091  1.00  0.00     0.210 HD
ENDBRANCH  20  32
ENDBRANCH   1  20
BRANCH   4  34
HETATM   34  O4  UNL     1     -14.687  44.931 -24.318  1.00  0.00    -0.384 OA
HETATM   35  H23 UNL     1     -15.178  45.398 -23.620  1.00  0.00     0.211 HD
ENDBRANCH   4  34
BRANCH  14  36
HETATM   36  C23 UNL     1     -18.702  43.345 -27.672  1.00  0.00    -0.005 C 
HETATM   37  C24 UNL     1     -17.920  42.487 -28.696  1.00  0.00     0.005 C 
HETATM   38  C25 UNL     1     -18.069  43.049 -30.114  1.00  0.00     0.000 C 
HETATM   39  C26 UNL     1     -19.451  43.648 -30.375  1.00  0.00     0.000 C 
HETATM   40  C27 UNL     1     -20.513  42.992 -29.505  1.00  0.00     0.000 C 
HETATM   41  C28 UNL     1     -20.206  43.123 -28.004  1.00  0.00     0.005 C 
ENDBRANCH  14  36
BRANCH  11  42
HETATM   42  O6  UNL     1     -20.810  42.296 -22.782  1.00  0.00    -0.396 OA
HETATM   43  H29 UNL     1     -21.456  42.761 -23.343  1.00  0.00     0.210 HD
ENDBRANCH  11  42
TORSDOF 9
ENDMDL
