MODEL 1
REMARK minimizedAffinity -9.59292316
REMARK  9 active torsions:
REMARK  status: ('A' for Active; 'I' for Inactive)
REMARK    1  A    between atoms: C2_2  and  C3_3 
REMARK    2  A    between atoms: C2_2  and  C9_11 
REMARK    3  A    between atoms: C3_3  and  C4_4 
REMARK    4  A    between atoms: C4_4  and  C5_5 
REMARK    5  A    between atoms: C5_5  and  O1_6 
REMARK    6  A    between atoms: C5_5  and  C6_7 
REMARK    7  A    between atoms: C6_7  and  O2_10 
REMARK    8  A    between atoms: C12_14  and  C13_15 
REMARK    9  A    between atoms: C13_15  and  O4_17 
ROOT
HETATM    1  C9  UNL     1       1.191   8.409  13.104  1.00  0.00    -0.001 C 
HETATM    2  C10 UNL     1       1.392   9.014  14.514  1.00  0.00     0.007 C 
HETATM    3  C11 UNL     1      -0.008   9.163  15.130  1.00  0.00     0.022 C 
HETATM    4  C12 UNL     1      -0.805   7.992  14.515  1.00  0.00     0.057 C 
HETATM    5  C14 UNL     1      -2.342   8.153  14.591  1.00  0.00     0.014 C 
HETATM    6  C15 UNL     1      -2.906   7.989  16.012  1.00  0.00     0.007 C 
HETATM    7  C16 UNL     1      -4.418   8.198  16.026  1.00  0.00     0.007 C 
HETATM    8  C17 UNL     1      -5.115   7.052  15.277  1.00  0.00     0.010 C 
HETATM    9  C18 UNL     1      -6.675   7.149  15.243  1.00  0.00     0.018 C 
HETATM   10  C19 UNL     1      -7.198   8.475  14.666  1.00  0.00     0.023 C 
HETATM   11  C20 UNL     1      -7.253   6.958  16.657  1.00  0.00     0.023 C 
HETATM   12  C21 UNL     1      -7.235   6.013  14.373  1.00  0.00     0.135 C 
HETATM   13  O5  UNL     1      -8.428   5.945  14.073  1.00  0.00    -0.297 OA
HETATM   14  C22 UNL     1      -6.276   4.928  13.954  1.00  0.00     0.080 C 
HETATM   15  C23 UNL     1      -5.081   5.526  13.227  1.00  0.00     0.018 C 
HETATM   16  C24 UNL     1      -4.544   6.806  13.874  1.00  0.00    -0.026 A 
HETATM   17  C25 UNL     1      -4.316   7.968  12.940  1.00  0.00     0.021 A 
HETATM   18  C26 UNL     1      -3.099   7.289  13.545  1.00  0.00    -0.027 A 
HETATM   19  C27 UNL     1      -2.264   6.422  12.581  1.00  0.00     0.011 C 
HETATM   20  C28 UNL     1      -0.820   6.850  12.254  1.00  0.00     0.012 C 
HETATM   21  C29 UNL     1      -0.343   8.081  13.023  1.00  0.00    -0.022 C 
HETATM   22  C30 UNL     1      -0.963   9.307  12.249  1.00  0.00     0.017 C 
ENDROOT
BRANCH   1  23
HETATM   23  C2  UNL     1       2.247   7.352  12.663  1.00  0.00    -0.014 C 
HETATM   24  C1  UNL     1       3.711   7.762  12.839  1.00  0.00     0.010 C 
BRANCH  23  25
HETATM   25  C3  UNL     1       1.986   6.950  11.184  1.00  0.00     0.007 C 
BRANCH  25  26
HETATM   26  C4  UNL     1       2.978   7.575  10.189  1.00  0.00     0.035 C 
BRANCH  26  27
HETATM   27  C5  UNL     1       2.878   6.924   8.801  1.00  0.00     0.151 C 
BRANCH  27  28
HETATM   28  O1  UNL     1       2.194   5.668   8.940  1.00  0.00    -0.393 OA
HETATM   29  H10 UNL     1       2.412   5.163   8.135  1.00  0.00     0.210 HD
ENDBRANCH  27  28
BRANCH  27  30
HETATM   30  C6  UNL     1       2.142   7.779   7.734  1.00  0.00     0.076 C 
HETATM   31  C7  UNL     1       0.815   8.325   8.267  1.00  0.00     0.048 C 
HETATM   32  C8  UNL     1       1.908   7.034   6.415  1.00  0.00     0.048 C 
BRANCH  30  33
HETATM   33  O2  UNL     1       2.975   8.922   7.453  1.00  0.00    -0.388 OA
HETATM   34  H17 UNL     1       3.669   8.619   6.839  1.00  0.00     0.210 HD
ENDBRANCH  30  33
ENDBRANCH  27  30
ENDBRANCH  26  27
ENDBRANCH  25  26
ENDBRANCH  23  25
ENDBRANCH   1  23
BRANCH   4  35
HETATM   35  C13 UNL     1      -0.430   6.670  15.232  1.00  0.00     0.149 C 
HETATM   36  O3  UNL     1      -0.760   5.537  14.918  1.00  0.00    -0.649 OA
BRANCH  35  37
HETATM   37  O4  UNL     1       0.293   6.819  16.358  1.00  0.00    -0.776 OA
HETATM   38  H23 UNL     1       0.418   5.899  16.674  1.00  0.00     0.167 HD
ENDBRANCH  35  37
ENDBRANCH   4  35
TORSDOF 9
ENDMDL
