MODEL 1
REMARK minimizedAffinity -6.83405018
REMARK  16 active torsions:
REMARK  status: ('A' for Active; 'I' for Inactive)
REMARK    1  A    between atoms: C2_2  and  C3_3 
REMARK    2  A    between atoms: C3_3  and  C4_4 
REMARK    3  A    between atoms: C4_4  and  C5_5 
REMARK    4  A    between atoms: C5_5  and  C6_6 
REMARK    5  A    between atoms: C6_6  and  C7_7 
REMARK    6  A    between atoms: C7_7  and  C8_8 
REMARK    7  A    between atoms: C8_8  and  N1_9 
REMARK    8  A    between atoms: N1_9  and  C9_10 
REMARK    9  A    between atoms: N1_9  and  C11_12 
REMARK   10  A    between atoms: N1_9  and  C13_14 
REMARK   11  A    between atoms: C13_14  and  C14_15 
REMARK   12  A    between atoms: C14_15  and  O1_16 
REMARK   13  A    between atoms: O1_16  and  C15_17 
REMARK   14  A    between atoms: C15_17  and  C16_19 
REMARK   15  A    between atoms: C16_19  and  C17_20 
REMARK   16  A    between atoms: C16_19  and  C22_25 
ROOT
HETATM    1  C14 UNL     1      -3.512  52.171 -25.260  1.00  0.00     0.206 C 
ENDROOT
BRANCH   1   2
HETATM    2  C13 UNL     1      -4.426  51.962 -24.039  1.00  0.00     0.264 C 
BRANCH   2   3
HETATM    3  N1  UNL     1      -4.733  50.467 -23.623  1.00  0.00    -0.066 N 
BRANCH   3   4
HETATM    4  C8  UNL     1      -4.527  49.554 -24.859  1.00  0.00     0.237 C 
BRANCH   4   5
HETATM    5  C7  UNL     1      -3.146  48.915 -24.974  1.00  0.00     0.028 C 
BRANCH   5   6
HETATM    6  C6  UNL     1      -2.901  48.419 -26.405  1.00  0.00     0.002 C 
BRANCH   6   7
HETATM    7  C5  UNL     1      -3.856  49.030 -27.436  1.00  0.00     0.000 C 
BRANCH   7   8
HETATM    8  C4  UNL     1      -4.929  48.054 -27.926  1.00  0.00     0.000 C 
BRANCH   8   9
HETATM    9  C3  UNL     1      -5.235  48.190 -29.422  1.00  0.00    -0.000 C 
BRANCH   9  10
HETATM   10  C2  UNL     1      -6.505  47.457 -29.856  1.00  0.00    -0.005 C 
HETATM   11  C1  UNL     1      -6.798  46.271 -28.951  1.00  0.00     0.005 C 
ENDBRANCH   9  10
ENDBRANCH   8   9
ENDBRANCH   7   8
ENDBRANCH   6   7
ENDBRANCH   5   6
ENDBRANCH   4   5
ENDBRANCH   3   4
BRANCH   3  12
HETATM   12  C9  UNL     1      -3.646  50.154 -22.526  1.00  0.00     0.233 C 
HETATM   13  C10 UNL     1      -3.005  51.367 -21.865  1.00  0.00     0.035 C 
ENDBRANCH   3  12
BRANCH   3  14
HETATM   14  C11 UNL     1      -6.141  50.362 -22.995  1.00  0.00     0.233 C 
HETATM   15  C12 UNL     1      -6.207  49.627 -21.671  1.00  0.00     0.035 C 
ENDBRANCH   3  14
ENDBRANCH   2   3
ENDBRANCH   1   2
BRANCH   1  16
HETATM   16  O1  UNL     1      -2.352  52.952 -24.914  1.00  0.00    -0.319 OA
BRANCH  16  17
HETATM   17  C15 UNL     1      -1.424  53.085 -25.902  1.00  0.00     0.263 C 
HETATM   18  O2  UNL     1      -1.720  53.325 -27.066  1.00  0.00    -0.265 OA
BRANCH  17  19
HETATM   19  C16 UNL     1       0.002  52.903 -25.400  1.00  0.00     0.093 C 
BRANCH  19  20
HETATM   20  C17 UNL     1       0.536  51.478 -25.723  1.00  0.00    -0.001 C 
HETATM   21  C18 UNL     1       2.045  51.410 -25.986  1.00  0.00     0.005 C 
HETATM   22  C19 UNL     1       2.212  51.866 -27.431  1.00  0.00     0.000 C 
HETATM   23  C20 UNL     1       0.901  51.514 -28.131  1.00  0.00     0.000 C 
HETATM   24  C21 UNL     1      -0.009  50.930 -27.053  1.00  0.00     0.005 C 
ENDBRANCH  19  20
BRANCH  19  25
HETATM   25  C22 UNL     1       0.140  53.301 -23.914  1.00  0.00    -0.001 C 
HETATM   26  C23 UNL     1       0.448  52.151 -22.950  1.00  0.00     0.005 C 
HETATM   27  C24 UNL     1       0.776  52.869 -21.648  1.00  0.00     0.000 C 
HETATM   28  C25 UNL     1       1.415  54.196 -22.059  1.00  0.00     0.000 C 
HETATM   29  C26 UNL     1       1.235  54.311 -23.573  1.00  0.00     0.005 C 
ENDBRANCH  19  25
ENDBRANCH  17  19
ENDBRANCH  16  17
ENDBRANCH   1  16
TORSDOF 16
ENDMDL
