MODEL 1
REMARK minimizedAffinity -8.0213728
REMARK  3 active torsions:
REMARK  status: ('A' for Active; 'I' for Inactive)
REMARK    1  A    between atoms: C2_2  and  C3_3 
REMARK    2  A    between atoms: C3_3  and  C4_4 
REMARK    3  A    between atoms: C4_4  and  O1_5 
ROOT
HETATM    1  C3  UNL     1      -1.857   6.399  13.382  1.00  0.00     0.017 C 
HETATM    2  C5  UNL     1      -1.078   7.739  13.084  1.00  0.00     0.016 C 
HETATM    3  C6  UNL     1      -1.958   8.974  12.878  1.00  0.00     0.031 C 
HETATM    4  C7  UNL     1      -3.244   8.909  13.683  1.00  0.00     0.273 C 
HETATM    5  N1  UNL     1      -4.063   7.748  13.338  1.00  0.00     0.100 N 
HETATM    6  C8  UNL     1      -4.989   7.409  14.443  1.00  0.00     0.278 C 
HETATM    7  C9  UNL     1      -6.054   6.354  14.084  1.00  0.00     0.072 C 
HETATM    8  C10 UNL     1      -5.459   5.259  13.280  1.00  0.00    -0.019 A 
HETATM    9  C11 UNL     1      -4.214   5.391  12.697  1.00  0.00     0.051 A 
HETATM   10  N2  UNL     1      -4.030   4.294  11.897  1.00  0.00    -0.357 N 
HETATM   11  C12 UNL     1      -5.076   3.409  12.043  1.00  0.00     0.043 A 
HETATM   12  C13 UNL     1      -5.281   2.152  11.462  1.00  0.00     0.030 A 
HETATM   13  C14 UNL     1      -6.467   1.480  11.775  1.00  0.00     0.002 A 
HETATM   14  C15 UNL     1      -7.410   2.048  12.628  1.00  0.00     0.001 A 
HETATM   15  C16 UNL     1      -7.190   3.308  13.197  1.00  0.00     0.014 A 
HETATM   16  C17 UNL     1      -5.998   3.998  12.908  1.00  0.00    -0.001 A 
HETATM   17  C18 UNL     1      -3.304   6.587  12.781  1.00  0.00     0.283 C 
HETATM   18  H19 UNL     1      -3.235   4.133  11.297  1.00  0.00     0.166 HD
ENDROOT
BRANCH   1  19
HETATM   19  C2  UNL     1      -1.030   5.275  12.653  1.00  0.00     0.010 C 
HETATM   20  C1  UNL     1      -0.606   5.496  11.205  1.00  0.00     0.006 C 
ENDBRANCH   1  19
BRANCH   1  21
HETATM   21  C4  UNL     1      -1.819   6.175  14.918  1.00  0.00     0.176 C 
BRANCH  21  22
HETATM   22  O1  UNL     1      -0.615   5.579  15.367  1.00  0.00    -0.400 OA
HETATM   23  H8  UNL     1      -0.687   5.452  16.327  1.00  0.00     0.209 HD
ENDBRANCH  21  22
ENDBRANCH   1  21
TORSDOF 3
ENDMDL
