MODEL 1
REMARK minimizedAffinity -8.00582981
REMARK CNNscore 0.486691415
REMARK CNNaffinity 7.58390045
REMARK  11 active torsions:
REMARK  status: ('A' for Active; 'I' for Inactive)
REMARK    1  A    between atoms: C3_3  and  O1_4 
REMARK    2  A    between atoms: N1_14  and  O2_16 
REMARK    3  A    between atoms: O2_16  and  C13_17 
REMARK    4  A    between atoms: C13_17  and  C14_18 
REMARK       I    between atoms: C14_18  and  N2_20 
REMARK    5  A    between atoms: N2_20  and  C15_21 
REMARK    6  A    between atoms: C15_21  and  C16_22 
REMARK       I    between atoms: C16_22  and  N3_24 
REMARK    7  A    between atoms: N3_24  and  C17_25 
REMARK    8  A    between atoms: C17_25  and  C18_26 
REMARK    9  A    between atoms: C17_25  and  C27_36 
REMARK   10  A    between atoms: C18_26  and  C19_27 
REMARK   11  A    between atoms: C27_36  and  O6_38 
ROOT
HETATM    1  C1  UNL     1     -13.154  15.906  16.003  1.00  0.00     0.015 C 
HETATM    2  C2  UNL     1     -12.296  15.084  15.828  1.00  0.00    -0.078 C 
HETATM    3  C3  UNL     1     -11.247  14.056  15.633  1.00  0.00     0.128 C 
HETATM    4  C4  UNL     1     -10.672  13.642  16.994  1.00  0.00     0.052 C 
HETATM    5  C5  UNL     1     -11.714  12.674  17.536  1.00  0.00     0.010 C 
HETATM    6  C6  UNL     1     -12.201  11.878  16.309  1.00  0.00     0.002 C 
HETATM    7  C7  UNL     1     -11.827  10.362  16.304  1.00  0.00    -0.004 C 
HETATM    8  C8  UNL     1     -10.480   9.961  16.944  1.00  0.00     0.010 C 
HETATM    9  C9  UNL     1     -10.255   8.443  16.929  1.00  0.00     0.035 C 
HETATM   10  C10 UNL     1     -10.453   7.857  15.549  1.00  0.00    -0.069 C 
HETATM   11  C11 UNL     1      -9.481   7.113  14.995  1.00  0.00     0.030 C 
HETATM   12  C12 UNL     1      -9.597   6.625  13.597  1.00  0.00     0.032 C 
HETATM   13  N1  UNL     1      -8.935   5.639  13.074  1.00  0.00    -0.271 N 
ATOM     14  H1  UNL     1      -9.007   5.356  12.097  1.00  0.00     0.194 HD
HETATM   15  C28 UNL     1     -10.539   7.389  12.698  1.00  0.00     0.060 C 
HETATM   16  C29 UNL     1     -11.868   7.611  13.406  1.00  0.00     0.020 C 
HETATM   17  C30 UNL     1     -11.770   8.196  14.854  1.00  0.00    -0.016 C 
HETATM   18  C31 UNL     1     -12.945   7.538  15.633  1.00  0.00     0.020 C 
HETATM   19  C32 UNL     1     -11.942   9.766  14.873  1.00  0.00     0.002 C 
HETATM   20  C33 UNL     1     -10.980  10.502  13.909  1.00  0.00     0.007 C 
HETATM   21  C34 UNL     1     -10.653  11.954  14.274  1.00  0.00     0.014 C 
HETATM   22  C35 UNL     1     -11.771  12.699  15.044  1.00  0.00     0.003 C 
HETATM   23  C36 UNL     1     -12.951  12.907  14.064  1.00  0.00     0.020 C 
ENDROOT
BRANCH   3  24
HETATM   24  O1  UNL     1     -10.225  14.623  14.823  1.00  0.00    -0.377 OA
HETATM   25  H2  UNL     1      -9.978  15.467  15.231  1.00  0.00     0.211 HD
ENDBRANCH   3  24
BRANCH  13  26
HETATM   26  O2  UNL     1      -8.105   5.009  14.016  1.00  0.00    -0.271 OA
BRANCH  26  27
HETATM   27  C13 UNL     1      -8.001   3.635  13.659  1.00  0.00     0.303 C 
BRANCH  27  28
HETATM   28  C14 UNL     1      -7.130   3.459  12.428  1.00  0.00     0.244 C 
HETATM   29  O3  UNL     1      -6.869   4.384  11.661  1.00  0.00    -0.271 OA
HETATM   30  N2  UNL     1      -6.708   2.174  12.187  1.00  0.00    -0.350 N 
HETATM   31  H16 UNL     1      -6.731   1.529  12.970  1.00  0.00     0.163 HD
BRANCH  30  32
HETATM   32  C15 UNL     1      -5.857   1.853  11.060  1.00  0.00     0.225 C 
BRANCH  32  33
HETATM   33  C16 UNL     1      -4.390   2.078  11.425  1.00  0.00     0.236 C 
HETATM   34  O4  UNL     1      -3.706   1.221  11.978  1.00  0.00    -0.272 OA
HETATM   35  N3  UNL     1      -3.947   3.351  11.156  1.00  0.00    -0.345 N 
HETATM   36  H19 UNL     1      -4.630   4.065  10.875  1.00  0.00     0.163 HD
BRANCH  35  37
HETATM   37  C17 UNL     1      -2.574   3.785  11.386  1.00  0.00     0.186 C 
BRANCH  37  38
HETATM   38  C18 UNL     1      -2.311   4.243  12.827  1.00  0.00     0.077 C 
BRANCH  38  39
HETATM   39  C19 UNL     1      -2.281   5.730  13.062  1.00  0.00    -0.028 A 
HETATM   40  C20 UNL     1      -1.183   6.569  13.041  1.00  0.00     0.096 A 
HETATM   41  N4  UNL     1      -1.607   7.842  13.303  1.00  0.00    -0.365 N 
HETATM   42  C21 UNL     1      -2.972   7.867  13.484  1.00  0.00     0.042 A 
HETATM   43  H24 UNL     1      -1.011   8.659  13.349  1.00  0.00     0.165 HD
HETATM   44  C22 UNL     1      -3.823   8.945  13.769  1.00  0.00     0.030 A 
HETATM   45  C26 UNL     1      -3.426   6.556  13.338  1.00  0.00    -0.002 A 
HETATM   46  C23 UNL     1      -5.188   8.675  13.890  1.00  0.00     0.002 A 
HETATM   47  C24 UNL     1      -5.676   7.379  13.742  1.00  0.00     0.001 A 
HETATM   48  C25 UNL     1      -4.810   6.311  13.468  1.00  0.00     0.014 A 
ENDBRANCH  38  39
ENDBRANCH  37  38
BRANCH  37  49
HETATM   49  C27 UNL     1      -1.564   2.716  10.968  1.00  0.00     0.163 C 
HETATM   50  O5  UNL     1      -0.579   2.366  11.600  1.00  0.00    -0.648 OA
BRANCH  49  51
HETATM   51  O6  UNL     1      -1.837   2.148   9.773  1.00  0.00    -0.775 OA
HETATM   52  H29 UNL     1      -1.115   1.496   9.637  1.00  0.00     0.167 HD
ENDBRANCH  49  51
ENDBRANCH  37  49
ENDBRANCH  35  37
ENDBRANCH  32  33
ENDBRANCH  30  32
ENDBRANCH  27  28
ENDBRANCH  26  27
ENDBRANCH  13  26
TORSDOF 11
ENDMDL
