MODEL 1
REMARK minimizedAffinity -9.58622456
REMARK  6 active torsions:
REMARK  status: ('A' for Active; 'I' for Inactive)
REMARK    1  A    between atoms: C2_2  and  C30_32 
REMARK    2  A    between atoms: C3_3  and  C4_4 
REMARK    3  A    between atoms: C4_4  and  C5_5 
REMARK    4  A    between atoms: C5_5  and  C6_6 
REMARK    5  A    between atoms: C6_6  and  C8_8 
REMARK    6  A    between atoms: C30_32  and  O4_34 
ROOT
HETATM    1  C8  UNL     1      -0.218  50.587 -21.209  1.00  0.00    -0.002 C 
HETATM    2  C9  UNL     1      -0.291  50.396 -19.665  1.00  0.00     0.007 C 
HETATM    3  C10 UNL     1      -1.627  49.704 -19.341  1.00  0.00     0.015 C 
HETATM    4  C11 UNL     1      -2.145  49.186 -20.694  1.00  0.00    -0.005 C 
HETATM    5  C12 UNL     1      -1.435  47.823 -20.965  1.00  0.00     0.021 C 
HETATM    6  C13 UNL     1      -3.628  48.898 -20.883  1.00  0.00    -0.000 C 
HETATM    7  C14 UNL     1      -4.221  49.006 -22.099  1.00  0.00    -0.060 C 
HETATM    8  C15 UNL     1      -3.419  49.512 -23.310  1.00  0.00     0.036 C 
HETATM    9  C16 UNL     1      -1.949  49.919 -23.080  1.00  0.00     0.015 C 
HETATM   10  C17 UNL     1      -1.704  50.375 -21.637  1.00  0.00    -0.028 C 
HETATM   11  C18 UNL     1      -2.505  51.692 -21.383  1.00  0.00     0.016 C 
HETATM   12  C19 UNL     1      -5.711  48.674 -22.358  1.00  0.00    -0.014 C 
HETATM   13  C20 UNL     1      -6.461  50.026 -22.523  1.00  0.00     0.020 C 
HETATM   14  C21 UNL     1      -5.874  47.867 -23.679  1.00  0.00     0.021 C 
HETATM   15  C22 UNL     1      -7.126  47.008 -23.700  1.00  0.00     0.080 C 
HETATM   16  C23 UNL     1      -7.007  45.935 -22.643  1.00  0.00     0.135 C 
HETATM   17  O1  UNL     1      -7.429  44.800 -22.866  1.00  0.00    -0.297 OA
HETATM   18  C24 UNL     1      -6.361  46.326 -21.298  1.00  0.00     0.018 C 
HETATM   19  C25 UNL     1      -7.218  45.674 -20.190  1.00  0.00     0.023 C 
HETATM   20  C26 UNL     1      -4.963  45.695 -21.251  1.00  0.00     0.023 C 
HETATM   21  C27 UNL     1      -6.391  47.894 -21.169  1.00  0.00     0.020 C 
HETATM   22  C28 UNL     1      -5.919  48.447 -19.822  1.00  0.00     0.090 C 
HETATM   23  C29 UNL     1      -4.422  48.448 -19.701  1.00  0.00     0.157 C 
HETATM   24  O2  UNL     1      -3.881  48.117 -18.650  1.00  0.00    -0.293 OA
ENDROOT
BRANCH   1  25
HETATM   25  C6  UNL     1       0.533  51.899 -21.595  1.00  0.00    -0.014 C 
HETATM   26  C7  UNL     1       0.499  52.937 -20.467  1.00  0.00     0.010 C 
BRANCH  25  27
HETATM   27  C5  UNL     1      -0.076  52.502 -22.891  1.00  0.00     0.008 C 
BRANCH  27  28
HETATM   28  C4  UNL     1       0.746  52.222 -24.156  1.00  0.00     0.028 C 
BRANCH  28  29
HETATM   29  C3  UNL     1       0.310  53.105 -25.294  1.00  0.00    -0.013 C 
HETATM   30  C2  UNL     1       0.371  52.825 -26.612  1.00  0.00     0.008 C 
HETATM   31  C1  UNL     1       0.952  51.577 -27.207  1.00  0.00     0.055 C 
BRANCH  30  32
HETATM   32  C30 UNL     1      -0.140  53.792 -27.621  1.00  0.00     0.171 C 
HETATM   33  O3  UNL     1      -0.379  54.968 -27.410  1.00  0.00    -0.646 OA
BRANCH  32  34
HETATM   34  O4  UNL     1      -0.331  53.262 -28.841  1.00  0.00    -0.773 OA
HETATM   35  H44 UNL     1      -0.663  54.016 -29.368  1.00  0.00     0.167 HD
ENDBRANCH  32  34
ENDBRANCH  30  32
ENDBRANCH  28  29
ENDBRANCH  27  28
ENDBRANCH  25  27
ENDBRANCH   1  25
TORSDOF 6
ENDMDL
