MODEL 1
REMARK minimizedAffinity -9.86912823
REMARK CNNscore 0.402294874
REMARK CNNaffinity 7.41715813
REMARK  11 active torsions:
REMARK  status: ('A' for Active; 'I' for Inactive)
REMARK    1  A    between atoms: C3_3  and  O1_4 
REMARK    2  A    between atoms: N1_14  and  O2_16 
REMARK    3  A    between atoms: O2_16  and  C13_17 
REMARK    4  A    between atoms: C13_17  and  C14_18 
REMARK       I    between atoms: C14_18  and  N2_20 
REMARK    5  A    between atoms: N2_20  and  C15_21 
REMARK    6  A    between atoms: C15_21  and  C16_22 
REMARK    7  A    between atoms: C15_21  and  C17_25 
REMARK    8  A    between atoms: C16_22  and  O5_24 
REMARK    9  A    between atoms: C17_25  and  O6_26 
REMARK   10  A    between atoms: C17_25  and  C18_27 
REMARK   11  A    between atoms: C22_31  and  N3_32 
ROOT
HETATM    1  C1  UNL     1      -0.378   8.844   8.663  1.00  0.00     0.015 C 
HETATM    2  C2  UNL     1       0.157   8.340   9.610  1.00  0.00    -0.078 C 
HETATM    3  C3  UNL     1       0.852   7.698  10.746  1.00  0.00     0.128 C 
HETATM    4  C4  UNL     1       1.530   6.385  10.278  1.00  0.00     0.052 C 
HETATM    5  C5  UNL     1       0.586   5.230  10.679  1.00  0.00     0.010 C 
HETATM    6  C6  UNL     1      -0.655   5.917  11.253  1.00  0.00     0.002 C 
HETATM    7  C7  UNL     1      -1.547   5.124  12.221  1.00  0.00    -0.004 C 
HETATM    8  C8  UNL     1      -2.060   3.823  11.581  1.00  0.00     0.010 C 
HETATM    9  C9  UNL     1      -2.989   3.051  12.519  1.00  0.00     0.035 C 
HETATM   10  C10 UNL     1      -4.119   3.942  12.976  1.00  0.00    -0.069 C 
HETATM   11  C11 UNL     1      -5.391   3.605  12.697  1.00  0.00     0.030 C 
HETATM   12  C12 UNL     1      -6.494   4.564  12.951  1.00  0.00     0.032 C 
HETATM   13  N1  UNL     1      -7.709   4.100  13.051  1.00  0.00    -0.271 N 
ATOM     14  H1  UNL     1      -7.955   3.111  13.001  1.00  0.00     0.194 HD
HETATM   15  C24 UNL     1      -6.084   6.018  13.063  1.00  0.00     0.060 C 
HETATM   16  C25 UNL     1      -4.956   6.085  14.082  1.00  0.00     0.020 C 
HETATM   17  C26 UNL     1      -3.701   5.248  13.677  1.00  0.00    -0.016 C 
HETATM   18  C27 UNL     1      -2.982   4.911  15.008  1.00  0.00     0.020 C 
HETATM   19  C28 UNL     1      -2.748   6.024  12.687  1.00  0.00     0.002 C 
HETATM   20  C29 UNL     1      -2.258   7.403  13.208  1.00  0.00     0.007 C 
HETATM   21  C30 UNL     1      -1.288   8.113  12.243  1.00  0.00     0.014 C 
HETATM   22  C31 UNL     1      -0.092   7.210  11.885  1.00  0.00     0.003 C 
HETATM   23  C32 UNL     1       0.747   6.969  13.178  1.00  0.00     0.020 C 
ENDROOT
BRANCH   3  24
HETATM   24  O1  UNL     1       1.829   8.604  11.236  1.00  0.00    -0.377 OA
HETATM   25  H2  UNL     1       2.330   8.923  10.465  1.00  0.00     0.211 HD
ENDBRANCH   3  24
BRANCH  13  26
HETATM   26  O2  UNL     1      -8.636   5.139  13.237  1.00  0.00    -0.271 OA
BRANCH  26  27
HETATM   27  C13 UNL     1      -7.961   6.336  13.607  1.00  0.00     0.303 C 
BRANCH  27  28
HETATM   28  C14 UNL     1      -8.816   7.303  14.419  1.00  0.00     0.244 C 
HETATM   29  O3  UNL     1      -8.352   8.309  14.955  1.00  0.00    -0.271 OA
HETATM   30  N2  UNL     1     -10.125   6.916  14.570  1.00  0.00    -0.342 N 
HETATM   31  H16 UNL     1     -10.465   6.224  13.897  1.00  0.00     0.163 HD
BRANCH  30  32
HETATM   32  C15 UNL     1     -11.114   7.778  15.220  1.00  0.00     0.216 C 
BRANCH  32  33
HETATM   33  C16 UNL     1     -10.406   8.869  16.016  1.00  0.00     0.166 C 
HETATM   34  O4  UNL     1      -9.433   9.528  15.680  1.00  0.00    -0.648 OA
BRANCH  33  35
HETATM   35  O5  UNL     1     -10.985   9.105  17.213  1.00  0.00    -0.775 OA
HETATM   36  H18 UNL     1     -10.403   9.784  17.620  1.00  0.00     0.167 HD
ENDBRANCH  33  35
ENDBRANCH  32  33
BRANCH  32  37
HETATM   37  C17 UNL     1     -12.082   8.435  14.207  1.00  0.00     0.184 C 
BRANCH  37  38
HETATM   38  O6  UNL     1     -11.447   8.500  12.919  1.00  0.00    -0.388 OA
HETATM   39  H20 UNL     1     -11.192   9.429  12.773  1.00  0.00     0.210 HD
ENDBRANCH  37  38
BRANCH  37  40
HETATM   40  C18 UNL     1     -13.425   7.721  14.064  1.00  0.00    -0.025 A 
HETATM   41  C19 UNL     1     -13.838   6.756  15.002  1.00  0.00     0.010 A 
HETATM   42  C20 UNL     1     -15.073   6.110  14.888  1.00  0.00     0.003 A 
HETATM   43  C21 UNL     1     -15.933   6.418  13.839  1.00  0.00     0.036 A 
HETATM   44  C22 UNL     1     -15.555   7.400  12.919  1.00  0.00     0.103 A 
HETATM   45  C23 UNL     1     -14.317   8.050  13.026  1.00  0.00     0.045 A 
BRANCH  44  46
HETATM   46  N3  UNL     1     -16.465   7.758  11.830  1.00  0.00    -0.116 N 
HETATM   47  O7  UNL     1     -17.644   7.379  11.917  1.00  0.00    -0.532 OA
HETATM   48  O8  UNL     1     -15.997   8.407  10.881  1.00  0.00    -0.532 OA
ENDBRANCH  44  46
ENDBRANCH  37  40
ENDBRANCH  32  37
ENDBRANCH  30  32
ENDBRANCH  27  28
ENDBRANCH  26  27
ENDBRANCH  13  26
TORSDOF 11
ENDMDL
