MODEL 1
REMARK minimizedAffinity -8.26852989
REMARK  12 active torsions:
REMARK  status: ('A' for Active; 'I' for Inactive)
REMARK    1  A    between atoms: C2_2  and  C3_3 
REMARK    2  A    between atoms: C3_3  and  C5_5 
REMARK    3  A    between atoms: C3_3  and  C20_20 
REMARK    4  A    between atoms: C6_6  and  C7_7 
REMARK    5  A    between atoms: C7_7  and  C9_9 
REMARK    6  A    between atoms: C9_9  and  C10_10 
REMARK    7  A    between atoms: C10_10  and  C11_11 
REMARK    8  A    between atoms: C12_12  and  C14_14 
REMARK    9  A    between atoms: C14_14  and  C15_15 
REMARK   10  A    between atoms: C15_15  and  C16_16 
REMARK   11  A    between atoms: C20_20  and  C21_21 
REMARK   12  A    between atoms: C21_21  and  C22_22 
ROOT
HETATM    1  C3  UNL     1      -0.132  52.478 -25.640  1.00  0.00    -0.010 C 
HETATM    2  C4  UNL     1       0.226  53.939 -26.013  1.00  0.00     0.024 C 
ENDROOT
BRANCH   1   3
HETATM    3  C2  UNL     1       0.509  51.620 -26.730  1.00  0.00    -0.024 C 
HETATM    4  C1  UNL     1       0.353  51.681 -28.060  1.00  0.00     0.008 C 
ENDBRANCH   1   3
BRANCH   1   5
HETATM    5  C5  UNL     1       0.486  52.205 -24.266  1.00  0.00    -0.017 C 
HETATM    6  C6  UNL     1       0.359  52.942 -23.147  1.00  0.00    -0.025 C 
BRANCH   6   7
HETATM    7  C7  UNL     1       1.007  52.583 -21.828  1.00  0.00     0.004 C 
HETATM    8  C8  UNL     1       1.054  53.827 -20.938  1.00  0.00     0.014 C 
BRANCH   7   9
HETATM    9  C9  UNL     1       0.224  51.426 -21.175  1.00  0.00     0.012 C 
BRANCH   9  10
HETATM   10  C10 UNL     1      -0.695  51.837 -20.018  1.00  0.00     0.028 C 
BRANCH  10  11
HETATM   11  C11 UNL     1      -0.107  51.506 -18.671  1.00  0.00    -0.024 C 
HETATM   12  C12 UNL     1      -0.277  50.395 -17.925  1.00  0.00    -0.087 C 
HETATM   13  C13 UNL     1      -1.140  49.227 -18.334  1.00  0.00     0.043 C 
BRANCH  12  14
HETATM   14  C14 UNL     1       0.381  50.183 -16.564  1.00  0.00     0.037 C 
BRANCH  14  15
HETATM   15  C15 UNL     1       0.640  51.421 -15.694  1.00  0.00     0.031 C 
BRANCH  15  16
HETATM   16  C16 UNL     1       1.954  52.076 -16.037  1.00  0.00    -0.024 C 
HETATM   17  C17 UNL     1       3.154  51.852 -15.467  1.00  0.00    -0.091 C 
HETATM   18  C18 UNL     1       3.398  50.927 -14.307  1.00  0.00     0.042 C 
HETATM   19  C19 UNL     1       4.388  52.557 -15.971  1.00  0.00     0.042 C 
ENDBRANCH  15  16
ENDBRANCH  14  15
ENDBRANCH  12  14
ENDBRANCH  10  11
ENDBRANCH   9  10
ENDBRANCH   7   9
ENDBRANCH   6   7
ENDBRANCH   1   5
BRANCH   1  20
HETATM   20  C20 UNL     1      -1.693  52.401 -25.515  1.00  0.00     0.018 C 
BRANCH  20  21
HETATM   21  C21 UNL     1      -2.297  50.989 -25.567  1.00  0.00     0.011 C 
BRANCH  21  22
HETATM   22  C22 UNL     1      -3.556  50.633 -24.720  1.00  0.00     0.022 C 
HETATM   23  C23 UNL     1      -3.893  51.534 -23.535  1.00  0.00    -0.084 C 
HETATM   24  C24 UNL     1      -3.038  52.244 -22.782  1.00  0.00     0.014 C 
HETATM   25  C25 UNL     1      -5.373  51.551 -23.202  1.00  0.00     0.034 C 
HETATM   26  C26 UNL     1      -6.076  50.247 -23.595  1.00  0.00     0.009 C 
HETATM   27  C27 UNL     1      -5.147  49.035 -23.418  1.00  0.00    -0.010 C 
HETATM   28  C28 UNL     1      -5.954  47.738 -23.556  1.00  0.00     0.011 C 
HETATM   29  C29 UNL     1      -3.851  49.120 -24.341  1.00  0.00    -0.037 C 
HETATM   30  C30 UNL     1      -2.711  48.456 -23.539  1.00  0.00     0.016 C 
HETATM   31  C31 UNL     1      -4.028  48.319 -25.652  1.00  0.00     0.016 C 
ENDBRANCH  21  22
ENDBRANCH  20  21
ENDBRANCH   1  20
TORSDOF 12
ENDMDL
