MODEL 1
REMARK minimizedAffinity -7.99075651
REMARK CNNscore 0.434105575
REMARK CNNaffinity 6.87285233
REMARK  0 active torsions:
REMARK  status: ('A' for Active; 'I' for Inactive)
ROOT
HETATM    1  C1  UNL     1       3.009  56.610  -5.116  1.00  0.00     0.023 C 
HETATM    2  C2  UNL     1       3.022  56.930  -6.620  1.00  0.00     0.017 C 
HETATM    3  C3  UNL     1       2.722  58.445  -6.769  1.00  0.00     0.023 C 
HETATM    4  C4  UNL     1       4.451  56.693  -7.142  1.00  0.00     0.135 C 
HETATM    5  O1  UNL     1       5.294  57.593  -7.179  1.00  0.00    -0.297 OA
HETATM    6  C5  UNL     1       4.854  55.283  -7.494  1.00  0.00     0.080 C 
HETATM    7  C6  UNL     1       3.800  54.607  -8.362  1.00  0.00     0.017 C 
HETATM    8  C7  UNL     1       2.360  54.610  -7.762  1.00  0.00    -0.035 C 
HETATM    9  C8  UNL     1       2.405  53.737  -6.476  1.00  0.00     0.016 C 
HETATM   10  C9  UNL     1       1.996  56.109  -7.483  1.00  0.00     0.009 C 
HETATM   11  C10 UNL     1       0.540  56.237  -6.999  1.00  0.00     0.007 C 
HETATM   12  C11 UNL     1      -0.425  55.761  -8.079  1.00  0.00     0.011 C 
HETATM   13  C12 UNL     1      -0.254  54.281  -8.513  1.00  0.00    -0.032 C 
HETATM   14  C13 UNL     1      -0.712  53.395  -7.319  1.00  0.00     0.016 C 
HETATM   15  C14 UNL     1       1.292  53.949  -8.786  1.00  0.00     0.003 C 
HETATM   16  C15 UNL     1       1.642  54.174 -10.268  1.00  0.00     0.006 C 
HETATM   17  C16 UNL     1       0.813  53.320 -11.232  1.00  0.00     0.006 C 
HETATM   18  C17 UNL     1      -0.518  52.817 -10.665  1.00  0.00    -0.000 C 
HETATM   19  C18 UNL     1      -1.446  52.238 -11.766  1.00  0.00     0.009 C 
HETATM   20  C19 UNL     1      -0.973  51.058 -12.646  1.00  0.00     0.067 A 
HETATM   21  C20 UNL     1      -2.306  50.369 -13.079  1.00  0.00     0.140 A 
HETATM   22  C21 UNL     1      -3.445  51.123 -12.382  1.00  0.00     0.042 C 
HETATM   23  C22 UNL     1      -2.765  51.715 -11.146  1.00  0.00    -0.037 C 
HETATM   24  C23 UNL     1      -2.587  50.585 -10.098  1.00  0.00     0.015 C 
HETATM   25  C24 UNL     1      -3.513  52.901 -10.529  1.00  0.00     0.010 C 
HETATM   26  C25 UNL     1      -2.675  53.549  -9.413  1.00  0.00     0.011 C 
HETATM   27  C26 UNL     1      -1.209  53.958  -9.824  1.00  0.00    -0.032 C 
HETATM   28  C27 UNL     1      -1.408  55.221 -10.730  1.00  0.00     0.016 C 
HETATM   29  O2  UNL     1      -2.469  50.467 -14.500  1.00  0.00    -0.313 OA
HETATM   30  C28 UNL     1      -1.366  51.038 -15.057  1.00  0.00     0.297 A 
HETATM   31  O3  UNL     1      -1.184  51.214 -16.251  1.00  0.00    -0.262 OA
HETATM   32  C29 UNL     1      -0.407  51.361 -13.990  1.00  0.00     0.175 A 
HETATM   33  C30 UNL     1       1.079  51.316 -14.251  1.00  0.00     0.218 A 
HETATM   34  O4  UNL     1       0.363  52.553 -14.137  1.00  0.00    -0.364 OA
ENDROOT
TORSDOF 0
ENDMDL
