MODEL 1
REMARK minimizedAffinity -7.46594429
REMARK CNNscore 0.502031863
REMARK CNNaffinity 7.61112785
REMARK  14 active torsions:
REMARK  status: ('A' for Active; 'I' for Inactive)
REMARK    1  A    between atoms: O1_2  and  C2_3 
REMARK    2  A    between atoms: C8_9  and  O2_10 
REMARK    3  A    between atoms: O2_10  and  C9_11 
REMARK    4  A    between atoms: C10_13  and  C11_14 
REMARK    5  A    between atoms: C11_14  and  O4_15 
REMARK    6  A    between atoms: C12_16  and  O5_17 
REMARK    7  A    between atoms: C13_18  and  O6_19 
REMARK    8  A    between atoms: C14_20  and  O7_21 
REMARK    9  A    between atoms: C18_25  and  C19_26 
REMARK   10  A    between atoms: C24_32  and  C25_33 
REMARK   11  A    between atoms: C25_33  and  C27_35 
REMARK   12  A    between atoms: C27_35  and  C28_36 
REMARK   13  A    between atoms: C29_37  and  C30_38 
REMARK   14  A    between atoms: C30_38  and  O9_41 
ROOT
HETATM    1  C2  UNL     1      -5.581   5.625  15.331  1.00  0.00     0.149 C 
HETATM    2  C3  UNL     1      -6.851   5.533  14.551  1.00  0.00     0.009 C 
HETATM    3  C4  UNL     1      -7.451   6.607  14.012  1.00  0.00    -0.066 C 
HETATM    4  C5  UNL     1      -6.840   7.984  14.201  1.00  0.00     0.031 C 
HETATM    5  C6  UNL     1      -7.685   8.680  15.294  1.00  0.00     0.013 C 
HETATM    6  C7  UNL     1      -9.201   8.430  15.136  1.00  0.00     0.034 C 
HETATM    7  C8  UNL     1      -9.592   7.941  13.730  1.00  0.00     0.136 C 
HETATM    8  C15 UNL     1      -8.843   6.602  13.357  1.00  0.00     0.002 C 
HETATM    9  C16 UNL     1      -8.674   6.538  11.822  1.00  0.00     0.022 C 
HETATM   10  C17 UNL     1      -9.693   5.376  13.769  1.00  0.00     0.022 C 
HETATM   11  C18 UNL     1      -5.256   8.023  14.329  1.00  0.00     0.027 C 
HETATM   12  C20 UNL     1      -4.707   8.589  12.962  1.00  0.00     0.018 C 
HETATM   13  C21 UNL     1      -3.247   8.328  12.555  1.00  0.00     0.011 C 
HETATM   14  C22 UNL     1      -2.565   7.146  13.253  1.00  0.00    -0.032 C 
HETATM   15  C23 UNL     1      -1.777   7.725  14.475  1.00  0.00     0.016 C 
HETATM   16  C24 UNL     1      -1.573   6.296  12.385  1.00  0.00    -0.002 C 
HETATM   17  C34 UNL     1      -1.515   4.953  13.172  1.00  0.00     0.006 C 
HETATM   18  C35 UNL     1      -2.738   4.905  14.104  1.00  0.00     0.011 C 
HETATM   19  C36 UNL     1      -3.644   6.064  13.638  1.00  0.00    -0.029 C 
HETATM   20  C37 UNL     1      -4.474   5.494  12.446  1.00  0.00     0.016 C 
HETATM   21  C38 UNL     1      -4.583   6.642  14.739  1.00  0.00     0.043 C 
ENDROOT
BRANCH   7  22
HETATM   22  O2  UNL     1     -11.011   7.748  13.667  1.00  0.00    -0.352 OA
BRANCH  22  23
HETATM   23  C9  UNL     1     -11.786   8.756  14.319  1.00  0.00     0.292 C 
HETATM   24  O3  UNL     1     -13.048   8.230  14.704  1.00  0.00    -0.348 OA
HETATM   25  C10 UNL     1     -14.017   7.993  13.669  1.00  0.00     0.179 C 
HETATM   26  C12 UNL     1     -13.899   8.919  12.452  1.00  0.00     0.180 C 
HETATM   27  C13 UNL     1     -13.282  10.241  12.887  1.00  0.00     0.183 C 
HETATM   28  C14 UNL     1     -11.862   9.992  13.386  1.00  0.00     0.204 C 
BRANCH  25  29
HETATM   29  C11 UNL     1     -14.033   6.505  13.272  1.00  0.00     0.198 C 
BRANCH  29  30
HETATM   30  O4  UNL     1     -13.501   5.659  14.284  1.00  0.00    -0.398 OA
HETATM   31  H16 UNL     1     -13.934   5.912  15.124  1.00  0.00     0.209 HD
ENDBRANCH  29  30
ENDBRANCH  25  29
BRANCH  26  32
HETATM   32  O5  UNL     1     -15.197   9.158  11.888  1.00  0.00    -0.390 OA
HETATM   33  H18 UNL     1     -15.033   9.779  11.153  1.00  0.00     0.210 HD
ENDBRANCH  26  32
BRANCH  27  34
HETATM   34  O6  UNL     1     -13.252  11.148  11.772  1.00  0.00    -0.390 OA
HETATM   35  H20 UNL     1     -12.745  11.926  12.085  1.00  0.00     0.210 HD
ENDBRANCH  27  34
BRANCH  28  36
HETATM   36  O7  UNL     1     -11.408  11.195  14.032  1.00  0.00    -0.388 OA
HETATM   37  H22 UNL     1     -10.465  11.073  14.255  1.00  0.00     0.210 HD
ENDBRANCH  28  36
ENDBRANCH  22  23
ENDBRANCH   7  22
BRANCH  11  38
HETATM   38  C19 UNL     1      -4.904   9.019  15.445  1.00  0.00     0.241 C 
HETATM   39  O8  UNL     1      -4.329  10.090  15.269  1.00  0.00    -0.306 OA
ENDBRANCH  11  38
BRANCH   1  40
HETATM   40  O1  UNL     1      -5.900   6.081  16.655  1.00  0.00    -0.386 OA
HETATM   41  C1  UNL     1      -7.285   5.978  16.967  1.00  0.00     0.202 C 
ENDBRANCH   1  40
BRANCH  16  42
HETATM   42  C25 UNL     1      -0.154   6.842  12.036  1.00  0.00    -0.010 C 
HETATM   43  C26 UNL     1       0.667   7.151  13.295  1.00  0.00     0.010 C 
BRANCH  42  44
HETATM   44  C27 UNL     1      -0.279   8.110  11.147  1.00  0.00     0.031 C 
BRANCH  44  45
HETATM   45  C28 UNL     1       0.683   8.173   9.993  1.00  0.00    -0.027 C 
HETATM   46  C29 UNL     1       1.235   7.087   9.429  1.00  0.00     0.006 C 
BRANCH  46  47
HETATM   47  C30 UNL     1       2.178   7.036   8.243  1.00  0.00     0.070 C 
HETATM   48  C31 UNL     1       1.557   7.397   6.883  1.00  0.00     0.050 C 
HETATM   49  C32 UNL     1       3.318   8.028   8.523  1.00  0.00     0.050 C 
BRANCH  47  50
HETATM   50  O9  UNL     1       2.803   5.740   8.204  1.00  0.00    -0.382 OA
HETATM   51  C33 UNL     1       3.360   5.272   9.426  1.00  0.00     0.202 C 
ENDBRANCH  47  50
ENDBRANCH  46  47
ENDBRANCH  44  45
ENDBRANCH  42  44
ENDBRANCH  16  42
TORSDOF 14
ENDMDL
