MODEL 1
REMARK minimizedAffinity -8.2757988
REMARK CNNscore 0.604088902
REMARK CNNaffinity 7.50097704
REMARK  11 active torsions:
REMARK  status: ('A' for Active; 'I' for Inactive)
REMARK    1  A    between atoms: O1_2  and  C2_3 
REMARK    2  A    between atoms: C16_18  and  C17_19 
REMARK    3  A    between atoms: C17_19  and  C19_21 
REMARK    4  A    between atoms: C23_25  and  C24_26 
REMARK    5  A    between atoms: C24_26  and  O3_27 
REMARK    6  A    between atoms: O3_27  and  C25_28 
REMARK    7  A    between atoms: C26_30  and  C27_31 
REMARK    8  A    between atoms: C27_31  and  O5_32 
REMARK    9  A    between atoms: C28_33  and  O6_34 
REMARK   10  A    between atoms: C29_35  and  O7_36 
REMARK   11  A    between atoms: C30_37  and  O8_38 
ROOT
HETATM    1  C19 UNL     1      -5.924   5.783  13.477  1.00  0.00     0.140 C 
HETATM    2  C20 UNL     1      -6.481   5.490  14.870  1.00  0.00     0.067 C 
HETATM    3  C21 UNL     1      -7.711   6.341  15.070  1.00  0.00    -0.067 C 
HETATM    4  C22 UNL     1      -7.917   6.864  16.465  1.00  0.00     0.044 C 
HETATM    5  C23 UNL     1      -8.517   6.599  14.015  1.00  0.00     0.043 C 
HETATM    6  C31 UNL     1      -8.214   5.962  12.698  1.00  0.00     0.292 C 
HETATM    7  O9  UNL     1      -9.074   5.817  11.841  1.00  0.00    -0.260 OA
HETATM    8  O10 UNL     1      -6.946   5.527  12.493  1.00  0.00    -0.311 OA
ENDROOT
BRANCH   1   9
HETATM    9  C17 UNL     1      -4.660   4.944  13.148  1.00  0.00     0.016 C 
HETATM   10  C18 UNL     1      -4.606   4.598  11.646  1.00  0.00     0.013 C 
BRANCH   9  11
HETATM   11  C16 UNL     1      -3.303   5.601  13.554  1.00  0.00     0.000 C 
HETATM   12  C14 UNL     1      -2.001   4.807  13.222  1.00  0.00    -0.036 C 
HETATM   13  C13 UNL     1      -1.707   4.788  11.714  1.00  0.00     0.010 C 
HETATM   14  C15 UNL     1      -2.073   3.344  13.732  1.00  0.00     0.016 C 
HETATM   15  C34 UNL     1      -0.900   5.561  14.026  1.00  0.00     0.001 C 
HETATM   16  C12 UNL     1      -0.234   4.517  11.439  1.00  0.00     0.007 C 
HETATM   17  C11 UNL     1       0.690   5.646  11.946  1.00  0.00     0.013 C 
HETATM   18  C9  UNL     1       1.274   6.564  10.785  1.00  0.00     0.048 C 
HETATM   19  C35 UNL     1       0.143   6.396  13.216  1.00  0.00     0.029 C 
HETATM   20  C4  UNL     1       1.707   7.926  11.325  1.00  0.00    -0.044 C 
HETATM   21  C8  UNL     1       2.499   5.842  10.161  1.00  0.00     0.143 C 
HETATM   22  C10 UNL     1       0.290   6.808   9.617  1.00  0.00     0.029 C 
HETATM   23  C3  UNL     1       0.985   8.539  12.277  1.00  0.00     0.013 C 
HETATM   24  C5  UNL     1       2.867   8.593  10.768  1.00  0.00     0.004 C 
HETATM   25  C2  UNL     1      -0.177   7.886  12.967  1.00  0.00     0.149 C 
HETATM   26  C6  UNL     1       3.654   8.036   9.842  1.00  0.00    -0.019 C 
HETATM   27  C7  UNL     1       3.454   6.661   9.305  1.00  0.00     0.106 C 
HETATM   28  O2  UNL     1       2.658   4.619  10.237  1.00  0.00    -0.296 OA
HETATM   29  C33 UNL     1      -1.647   6.315  15.152  1.00  0.00     0.006 C 
HETATM   30  C32 UNL     1      -3.122   5.946  15.033  1.00  0.00     0.006 C 
BRANCH  25  31
HETATM   31  O1  UNL     1      -1.355   8.030  12.188  1.00  0.00    -0.386 OA
HETATM   32  C1  UNL     1      -2.216   9.065  12.648  1.00  0.00     0.202 C 
ENDBRANCH  25  31
ENDBRANCH   9  11
ENDBRANCH   1   9
BRANCH   5  33
HETATM   33  C24 UNL     1      -9.785   7.418  14.023  1.00  0.00     0.216 C 
BRANCH  33  34
HETATM   34  O3  UNL     1     -10.937   6.640  13.689  1.00  0.00    -0.354 OA
BRANCH  34  35
HETATM   35  C25 UNL     1     -12.006   7.406  13.136  1.00  0.00     0.291 C 
HETATM   36  O4  UNL     1     -13.248   6.946  13.676  1.00  0.00    -0.348 OA
HETATM   37  C26 UNL     1     -13.362   7.171  15.098  1.00  0.00     0.179 C 
HETATM   38  C28 UNL     1     -13.202   8.659  15.458  1.00  0.00     0.180 C 
HETATM   39  C29 UNL     1     -12.972   9.503  14.208  1.00  0.00     0.183 C 
HETATM   40  C30 UNL     1     -11.824   8.925  13.373  1.00  0.00     0.204 C 
BRANCH  37  41
HETATM   41  C27 UNL     1     -14.731   6.637  15.538  1.00  0.00     0.198 C 
BRANCH  41  42
HETATM   42  O5  UNL     1     -14.934   6.828  16.942  1.00  0.00    -0.398 OA
HETATM   43  H38 UNL     1     -15.838   6.515  17.130  1.00  0.00     0.209 HD
ENDBRANCH  41  42
ENDBRANCH  37  41
BRANCH  38  44
HETATM   44  O6  UNL     1     -12.062   8.820  16.328  1.00  0.00    -0.390 OA
HETATM   45  H40 UNL     1     -11.912   9.789  16.361  1.00  0.00     0.210 HD
ENDBRANCH  38  44
BRANCH  39  46
HETATM   46  O7  UNL     1     -12.638  10.850  14.600  1.00  0.00    -0.390 OA
HETATM   47  H42 UNL     1     -12.268  11.273  13.798  1.00  0.00     0.210 HD
ENDBRANCH  39  46
BRANCH  40  48
HETATM   48  O8  UNL     1     -11.772   9.662  12.132  1.00  0.00    -0.388 OA
HETATM   49  H44 UNL     1     -12.592   9.472  11.643  1.00  0.00     0.210 HD
ENDBRANCH  40  48
ENDBRANCH  34  35
ENDBRANCH  33  34
ENDBRANCH   5  33
TORSDOF 11
ENDMDL
