MODEL 1
REMARK minimizedAffinity -6.54970169
REMARK CNNscore 0.390844017
REMARK CNNaffinity 6.41849327
REMARK  6 active torsions:
REMARK  status: ('A' for Active; 'I' for Inactive)
REMARK    1  A    between atoms: C9_10  and  C10_11 
REMARK    2  A    between atoms: C11_13  and  O3_14 
REMARK    3  A    between atoms: C12_15  and  C13_16 
REMARK    4  A    between atoms: C14_18  and  O5_19 
REMARK    5  A    between atoms: C16_21  and  C17_22 
REMARK    6  A    between atoms: C17_22  and  C18_23 
ROOT
HETATM    1  C1  UNL     1      -0.401  12.254  16.645  1.00  0.00     0.043 C 
HETATM    2  C2  UNL     1      -1.400  11.174  16.286  1.00  0.00    -0.087 C 
HETATM    3  C3  UNL     1      -1.620  10.165  17.155  1.00  0.00    -0.024 C 
HETATM    4  C4  UNL     1      -2.522   8.952  17.154  1.00  0.00     0.030 C 
HETATM    5  C5  UNL     1      -3.796   8.977  16.313  1.00  0.00     0.042 C 
HETATM    6  C6  UNL     1      -3.841   8.150  14.984  1.00  0.00     0.069 C 
HETATM    7  C7  UNL     1      -4.908   8.857  14.098  1.00  0.00     0.047 C 
HETATM    8  O1  UNL     1      -4.475   6.888  15.410  1.00  0.00    -0.338 OA
HETATM    9  C8  UNL     1      -4.573   5.966  14.399  1.00  0.00     0.095 A 
HETATM   10  C9  UNL     1      -5.792   5.339  14.133  1.00  0.00     0.070 A 
HETATM   11  C11 UNL     1      -5.895   4.473  13.039  1.00  0.00     0.097 A 
HETATM   12  C12 UNL     1      -4.777   4.250  12.227  1.00  0.00     0.069 A 
HETATM   13  C14 UNL     1      -3.543   4.863  12.533  1.00  0.00     0.091 A 
HETATM   14  C15 UNL     1      -3.417   5.687  13.657  1.00  0.00     0.015 A 
HETATM   15  C16 UNL     1      -2.171   6.343  14.219  1.00  0.00     0.032 C 
HETATM   16  C21 UNL     1      -2.415   7.890  14.259  1.00  0.00     0.034 C 
HETATM   17  C22 UNL     1      -2.335   8.555  12.888  1.00  0.00     0.006 A 
HETATM   18  C23 UNL     1      -1.861  10.005  12.765  1.00  0.00    -0.001 A 
HETATM   19  C24 UNL     1      -1.112  10.777  13.824  1.00  0.00     0.010 C 
HETATM   20  C25 UNL     1      -2.011  11.362  14.912  1.00  0.00     0.034 C 
HETATM   21  C26 UNL     1      -1.124   8.911  12.006  1.00  0.00    -0.039 A 
HETATM   22  C27 UNL     1      -1.346   8.858  10.509  1.00  0.00     0.015 C 
HETATM   23  C28 UNL     1       0.307   8.604  12.372  1.00  0.00     0.015 C 
ENDROOT
BRANCH  15  24
HETATM   24  C17 UNL     1      -0.791   5.896  13.708  1.00  0.00     0.014 C 
BRANCH  24  25
HETATM   25  C18 UNL     1      -0.808   4.933  12.494  1.00  0.00    -0.022 C 
HETATM   26  C19 UNL     1      -0.269   3.543  12.845  1.00  0.00     0.009 C 
HETATM   27  C20 UNL     1       0.029   5.532  11.359  1.00  0.00     0.009 C 
ENDBRANCH  24  25
ENDBRANCH  15  24
BRANCH  13  28
HETATM   28  O5  UNL     1      -2.453   4.686  11.724  1.00  0.00    -0.359 OA
HETATM   29  H15 UNL     1      -2.691   4.074  10.990  1.00  0.00     0.217 HD
ENDBRANCH  13  28
BRANCH  10  30
HETATM   30  C10 UNL     1      -6.957   5.624  14.991  1.00  0.00     0.275 C 
HETATM   31  O2  UNL     1      -7.446   4.734  15.684  1.00  0.00    -0.301 OA
ENDBRANCH  10  30
BRANCH  12  32
HETATM   32  C13 UNL     1      -4.909   3.365  11.050  1.00  0.00     0.275 C 
HETATM   33  O4  UNL     1      -4.272   2.315  10.984  1.00  0.00    -0.301 OA
ENDBRANCH  12  32
BRANCH  11  34
HETATM   34  O3  UNL     1      -7.076   3.847  12.724  1.00  0.00    -0.359 OA
HETATM   35  H13 UNL     1      -7.762   4.114  13.381  1.00  0.00     0.217 HD
ENDBRANCH  11  34
TORSDOF 6
ENDMDL
