MODEL 1
REMARK minimizedAffinity -10.2737007
REMARK  5 active torsions:
REMARK  status: ('A' for Active; 'I' for Inactive)
REMARK    1  A    between atoms: C2_2  and  C3_3 
REMARK    2  A    between atoms: C3_3  and  N1_4 
REMARK    3  A    between atoms: C4_5  and  S1_6 
REMARK    4  A    between atoms: S1_6  and  C5_7 
REMARK    5  A    between atoms: C21_31  and  C22_32 
ROOT
HETATM    1  C5  UNL     1      -1.294  50.407 -22.648  1.00  0.00     0.093 A 
HETATM    2  C6  UNL     1      -0.538  51.327 -21.985  1.00  0.00    -0.016 A 
HETATM    3  C7  UNL     1      -0.143  51.162 -20.523  1.00  0.00     0.042 C 
HETATM    4  C8  UNL     1       0.345  52.419 -19.817  1.00  0.00     0.005 C 
HETATM    5  C9  UNL     1       1.397  53.105 -20.662  1.00  0.00     0.005 C 
HETATM    6  C10 UNL     1       0.776  53.560 -21.974  1.00  0.00     0.041 C 
HETATM    7  C11 UNL     1      -0.017  52.500 -22.727  1.00  0.00    -0.025 A 
HETATM    8  C12 UNL     1      -0.267  52.645 -24.054  1.00  0.00     0.096 A 
HETATM    9  C13 UNL     1       0.205  53.779 -24.789  1.00  0.00     0.104 C 
HETATM   10  N2  UNL     1       0.604  54.727 -25.329  1.00  0.00    -0.191 NA
HETATM   11  C14 UNL     1      -1.060  51.682 -24.743  1.00  0.00     0.135 A 
HETATM   12  N3  UNL     1      -1.406  51.655 -26.011  1.00  0.00    -0.339 N 
ATOM     13  H3  UNL     1      -1.137  52.318 -26.738  1.00  0.00     0.167 HD
HETATM   14  C15 UNL     1      -2.198  50.558 -26.152  1.00  0.00     0.061 A 
HETATM   15  C16 UNL     1      -2.833  50.095 -27.317  1.00  0.00     0.032 A 
HETATM   16  C17 UNL     1      -3.639  48.958 -27.248  1.00  0.00     0.002 A 
HETATM   17  C18 UNL     1      -3.817  48.299 -26.037  1.00  0.00     0.002 A 
HETATM   18  C19 UNL     1      -3.189  48.748 -24.867  1.00  0.00     0.032 A 
HETATM   19  C20 UNL     1      -2.362  49.884 -24.942  1.00  0.00     0.068 A 
HETATM   20  N4  UNL     1      -1.580  50.601 -24.025  1.00  0.00    -0.287 N 
ENDROOT
BRANCH   1  21
HETATM   21  S1  UNL     1      -1.861  48.964 -21.835  1.00  0.00    -0.033 SA
BRANCH  21  22
HETATM   22  C4  UNL     1      -3.495  49.474 -21.547  1.00  0.00     0.169 A 
HETATM   23  N1  UNL     1      -4.480  48.651 -21.067  1.00  0.00    -0.307 N 
HETATM   24  C21 UNL     1      -5.612  49.438 -20.982  1.00  0.00     0.135 A 
HETATM   25  N6  UNL     1      -5.316  50.645 -21.429  1.00  0.00    -0.283 N 
HETATM   26  N5  UNL     1      -3.987  50.671 -21.766  1.00  0.00    -0.278 N 
ATOM     27  H6  UNL     1      -5.967  51.426 -21.509  1.00  0.00     0.188 HD
ATOM     28  H5  UNL     1      -3.472  51.477 -22.123  1.00  0.00     0.189 HD
BRANCH  23  29
HETATM   29  C3  UNL     1      -4.404  47.219 -20.833  1.00  0.00     0.159 C 
BRANCH  29  30
HETATM   30  C2  UNL     1      -3.095  46.630 -21.279  1.00  0.00    -0.017 C 
HETATM   31  C1  UNL     1      -2.079  47.341 -21.786  1.00  0.00     0.008 C 
ENDBRANCH  29  30
ENDBRANCH  23  29
BRANCH  24  32
HETATM   32  C22 UNL     1      -6.928  49.006 -20.530  1.00  0.00     0.009 A 
HETATM   33  C23 UNL     1      -7.319  49.241 -19.206  1.00  0.00     0.015 A 
HETATM   34  C24 UNL     1      -8.580  48.840 -18.760  1.00  0.00     0.001 A 
HETATM   35  C25 UNL     1      -9.454  48.191 -19.630  1.00  0.00     0.000 A 
HETATM   36  C26 UNL     1      -9.066  47.933 -20.944  1.00  0.00     0.001 A 
HETATM   37  C27 UNL     1      -7.806  48.335 -21.391  1.00  0.00     0.015 A 
ENDBRANCH  24  32
ENDBRANCH  21  22
ENDBRANCH   1  21
TORSDOF 5
ENDMDL
