MODEL 1
REMARK minimizedAffinity -7.11897612
REMARK CNNscore 0.879393339
REMARK CNNaffinity 6.76164198
REMARK  7 active torsions:
REMARK  status: ('A' for Active; 'I' for Inactive)
REMARK    1  A    between atoms: C2_2  and  C4_4 
REMARK    2  A    between atoms: C7_7  and  O1_9 
REMARK    3  A    between atoms: C9_10  and  C10_11 
REMARK    4  A    between atoms: C11_12  and  C12_13 
REMARK    5  A    between atoms: C14_15  and  C15_16 
REMARK    6  A    between atoms: C24_26  and  C26_28 
REMARK    7  A    between atoms: C29_32  and  O4_34 
ROOT
HETATM    1  C15 UNL     1     -16.303   0.185  28.348  1.00  0.00     0.149 C 
HETATM    2  C16 UNL     1     -16.058   0.528  26.883  1.00  0.00     0.054 C 
HETATM    3  C17 UNL     1     -15.381   1.916  26.910  1.00  0.00     0.050 C 
HETATM    4  C18 UNL     1     -14.557   1.722  28.212  1.00  0.00     0.272 C 
HETATM    5  O2  UNL     1     -13.367   0.956  28.045  1.00  0.00    -0.360 OA
HETATM    6  C19 UNL     1     -12.238   1.726  27.679  1.00  0.00     0.171 C 
HETATM    7  C20 UNL     1     -12.064   1.754  26.171  1.00  0.00     0.027 C 
HETATM    8  C21 UNL     1     -13.293   1.331  25.372  1.00  0.00     0.012 C 
HETATM    9  C22 UNL     1     -14.574   2.171  25.578  1.00  0.00     0.032 C 
HETATM   10  C23 UNL     1     -14.326   3.665  25.273  1.00  0.00    -0.066 C 
HETATM   11  C24 UNL     1     -14.111   4.176  24.034  1.00  0.00    -0.021 C 
HETATM   12  C25 UNL     1     -13.845   5.627  23.744  1.00  0.00     0.052 C 
HETATM   13  C27 UNL     1     -14.388   4.554  26.491  1.00  0.00     0.038 C 
HETATM   14  C28 UNL     1     -15.732   4.455  27.211  1.00  0.00     0.042 C 
HETATM   15  C29 UNL     1     -16.442   3.087  27.075  1.00  0.00     0.067 C 
HETATM   16  C30 UNL     1     -17.472   3.151  25.924  1.00  0.00     0.047 C 
HETATM   17  O5  UNL     1     -15.372   0.959  29.117  1.00  0.00    -0.351 OA
ENDROOT
BRANCH   1  18
HETATM   18  C14 UNL     1     -16.063  -1.267  28.650  1.00  0.00     0.011 C 
HETATM   19  C12 UNL     1     -16.458  -1.969  29.733  1.00  0.00    -0.064 C 
HETATM   20  C13 UNL     1     -17.290  -1.385  30.845  1.00  0.00     0.048 C 
BRANCH  19  21
HETATM   21  C11 UNL     1     -16.081  -3.380  29.822  1.00  0.00     0.003 C 
HETATM   22  C10 UNL     1     -14.852  -3.890  29.639  1.00  0.00    -0.018 C 
BRANCH  22  23
HETATM   23  C9  UNL     1     -14.440  -5.346  29.727  1.00  0.00     0.050 C 
HETATM   24  C4  UNL     1     -13.736  -6.005  28.498  1.00  0.00     0.024 C 
HETATM   25  C5  UNL     1     -12.966  -7.169  29.144  1.00  0.00     0.013 C 
HETATM   26  C6  UNL     1     -12.382  -6.548  30.402  1.00  0.00     0.039 C 
HETATM   27  C7  UNL     1     -13.518  -5.677  30.955  1.00  0.00     0.062 C 
HETATM   28  C8  UNL     1     -12.946  -4.489  31.727  1.00  0.00     0.046 C 
BRANCH  24  29
HETATM   29  C2  UNL     1     -14.666  -6.399  27.348  1.00  0.00    -0.088 C 
HETATM   30  C1  UNL     1     -15.760  -5.708  26.981  1.00  0.00     0.014 C 
HETATM   31  C3  UNL     1     -14.339  -7.684  26.629  1.00  0.00     0.043 C 
ENDBRANCH  24  29
BRANCH  27  32
HETATM   32  O1  UNL     1     -14.267  -6.449  31.908  1.00  0.00    -0.390 OA
HETATM   33  H14 UNL     1     -14.612  -7.238  31.458  1.00  0.00     0.210 HD
ENDBRANCH  27  32
ENDBRANCH  22  23
ENDBRANCH  19  21
ENDBRANCH   1  18
BRANCH  15  34
HETATM   34  O4  UNL     1     -17.225   2.921  28.262  1.00  0.00    -0.389 OA
HETATM   35  H44 UNL     1     -17.872   3.647  28.318  1.00  0.00     0.210 HD
ENDBRANCH  15  34
BRANCH  11  36
HETATM   36  C26 UNL     1     -14.117   3.330  22.800  1.00  0.00     0.265 C 
HETATM   37  O3  UNL     1     -13.843   3.748  21.684  1.00  0.00    -0.302 OA
ENDBRANCH  11  36
TORSDOF 7
ENDMDL
