MODEL 1
REMARK minimizedAffinity -7.24845123
REMARK CNNscore 0.821873724
REMARK CNNaffinity 7.34207296
REMARK  8 active torsions:
REMARK  status: ('A' for Active; 'I' for Inactive)
REMARK    1  A    between atoms: C12_12  and  O1_13 
REMARK    2  A    between atoms: C17_18  and  O2_19 
REMARK    3  A    between atoms: C18_20  and  C19_21 
REMARK    4  A    between atoms: C19_21  and  C21_23 
REMARK    5  A    between atoms: C21_23  and  C22_24 
REMARK    6  A    between atoms: C22_24  and  C23_25 
REMARK    7  A    between atoms: C24_26  and  C26_28 
REMARK    8  A    between atoms: C26_28  and  O3_29 
ROOT
HETATM    1  C1  UNL     1       0.680  52.288 -13.861  1.00  0.00     0.044 C 
HETATM    2  C2  UNL     1      -0.492  52.198 -12.916  1.00  0.00    -0.074 C 
HETATM    3  C3  UNL     1      -0.591  52.763 -11.684  1.00  0.00    -0.044 C 
HETATM    4  C4  UNL     1       0.530  53.338 -10.880  1.00  0.00    -0.048 C 
HETATM    5  C5  UNL     1       0.282  54.145  -9.811  1.00  0.00    -0.064 C 
HETATM    6  C6  UNL     1      -1.099  54.597  -9.410  1.00  0.00     0.036 C 
HETATM    7  C7  UNL     1      -2.174  54.213 -10.412  1.00  0.00     0.014 C 
HETATM    8  C8  UNL     1      -1.948  52.786 -10.942  1.00  0.00     0.030 C 
HETATM    9  C9  UNL     1      -3.194  52.266 -11.749  1.00  0.00    -0.014 C 
HETATM   10  C10 UNL     1      -3.792  53.344 -12.685  1.00  0.00     0.018 C 
HETATM   11  C11 UNL     1      -4.314  51.843 -10.770  1.00  0.00     0.018 C 
HETATM   12  C12 UNL     1      -2.735  51.026 -12.546  1.00  0.00     0.130 C 
HETATM   13  C13 UNL     1      -1.619  51.388 -13.525  1.00  0.00     0.067 C 
HETATM   14  C14 UNL     1       1.409  54.548  -8.855  1.00  0.00    -0.010 C 
HETATM   15  C15 UNL     1       1.391  53.437  -7.753  1.00  0.00     0.021 C 
HETATM   16  C16 UNL     1       1.357  55.910  -8.135  1.00  0.00     0.046 C 
HETATM   17  C17 UNL     1       2.817  56.170  -7.683  1.00  0.00     0.124 C 
HETATM   18  C18 UNL     1       3.719  55.207  -8.515  1.00  0.00     0.027 C 
HETATM   19  C27 UNL     1       2.763  54.710  -9.640  1.00  0.00    -0.026 C 
HETATM   20  C28 UNL     1       2.660  55.758 -10.789  1.00  0.00     0.016 C 
HETATM   21  C29 UNL     1       3.098  53.345 -10.245  1.00  0.00     0.015 C 
HETATM   22  C30 UNL     1       1.965  52.882 -11.190  1.00  0.00     0.040 C 
ENDROOT
BRANCH  18  23
HETATM   23  C19 UNL     1       5.196  55.610  -8.821  1.00  0.00    -0.011 C 
HETATM   24  C20 UNL     1       5.926  54.378  -9.396  1.00  0.00     0.010 C 
BRANCH  23  25
HETATM   25  C21 UNL     1       6.037  56.234  -7.681  1.00  0.00     0.008 C 
BRANCH  25  26
HETATM   26  C22 UNL     1       6.993  55.278  -6.948  1.00  0.00     0.028 C 
BRANCH  26  27
HETATM   27  C23 UNL     1       8.157  55.968  -6.292  1.00  0.00    -0.022 C 
HETATM   28  C24 UNL     1       8.900  55.524  -5.257  1.00  0.00    -0.064 C 
HETATM   29  C25 UNL     1      10.067  56.333  -4.752  1.00  0.00     0.045 C 
BRANCH  28  30
HETATM   30  C26 UNL     1       8.666  54.233  -4.521  1.00  0.00     0.197 C 
BRANCH  30  31
HETATM   31  O3  UNL     1       9.081  54.387  -3.171  1.00  0.00    -0.397 OA
HETATM   32  H41 UNL     1       8.626  55.179  -2.832  1.00  0.00     0.209 HD
ENDBRANCH  30  31
ENDBRANCH  28  30
ENDBRANCH  26  27
ENDBRANCH  25  26
ENDBRANCH  23  25
ENDBRANCH  18  23
BRANCH  17  33
HETATM   33  O2  UNL     1       3.128  57.537  -7.858  1.00  0.00    -0.395 OA
HETATM   34  H25 UNL     1       2.517  58.053  -7.303  1.00  0.00     0.210 HD
ENDBRANCH  17  33
BRANCH  12  35
HETATM   35  O1  UNL     1      -3.814  50.407 -13.250  1.00  0.00    -0.394 OA
HETATM   36  H16 UNL     1      -4.057  50.972 -14.002  1.00  0.00     0.210 HD
ENDBRANCH  12  35
TORSDOF 8
ENDMDL
