MODEL 1
REMARK minimizedAffinity -8.64911938
REMARK CNNscore 0.489564419
REMARK CNNaffinity 6.49592781
REMARK  6 active torsions:
REMARK  status: ('A' for Active; 'I' for Inactive)
REMARK    1  A    between atoms: C2_2  and  C30_32 
REMARK    2  A    between atoms: C3_3  and  C4_4 
REMARK    3  A    between atoms: C4_4  and  C5_6 
REMARK    4  A    between atoms: C5_6  and  C6_7 
REMARK    5  A    between atoms: C6_7  and  C8_9 
REMARK    6  A    between atoms: C30_32  and  O4_34 
ROOT
HETATM    1  C8  UNL     1       6.217  64.614 -34.349  1.00  0.00    -0.001 C 
HETATM    2  C9  UNL     1       6.229  65.797 -33.365  1.00  0.00     0.007 C 
HETATM    3  C10 UNL     1       5.881  67.059 -34.177  1.00  0.00     0.015 C 
HETATM    4  C11 UNL     1       5.765  66.623 -35.664  1.00  0.00    -0.013 C 
HETATM    5  C12 UNL     1       7.194  66.777 -36.270  1.00  0.00     0.021 C 
HETATM    6  C13 UNL     1       4.711  67.422 -36.471  1.00  0.00    -0.070 C 
HETATM    7  C14 UNL     1       4.980  68.072 -37.616  1.00  0.00    -0.022 C 
HETATM    8  C15 UNL     1       3.968  68.714 -38.506  1.00  0.00     0.034 C 
HETATM    9  C16 UNL     1       2.469  68.425 -38.199  1.00  0.00     0.013 C 
HETATM   10  C17 UNL     1       1.572  69.483 -38.951  1.00  0.00     0.018 C 
HETATM   11  C18 UNL     1       0.083  69.094 -39.020  1.00  0.00     0.023 C 
HETATM   12  C19 UNL     1       2.032  69.649 -40.422  1.00  0.00     0.023 C 
HETATM   13  C20 UNL     1       1.695  70.834 -38.227  1.00  0.00     0.135 C 
HETATM   14  O2  UNL     1       1.763  71.900 -38.843  1.00  0.00    -0.297 OA
HETATM   15  C21 UNL     1       1.618  70.844 -36.712  1.00  0.00     0.080 C 
HETATM   16  C22 UNL     1       2.467  69.756 -36.055  1.00  0.00     0.017 C 
HETATM   17  C23 UNL     1       2.245  68.334 -36.653  1.00  0.00    -0.031 C 
HETATM   18  C24 UNL     1       0.820  67.872 -36.258  1.00  0.00     0.016 C 
HETATM   19  C25 UNL     1       3.270  67.316 -35.993  1.00  0.00     0.024 C 
HETATM   20  C26 UNL     1       2.904  65.824 -36.123  1.00  0.00     0.010 C 
HETATM   21  C27 UNL     1       3.811  64.985 -35.213  1.00  0.00     0.011 C 
HETATM   22  C28 UNL     1       5.325  65.107 -35.536  1.00  0.00    -0.029 C 
HETATM   23  C29 UNL     1       5.613  64.288 -36.812  1.00  0.00     0.016 C 
ENDROOT
BRANCH   1  24
HETATM   24  C6  UNL     1       5.941  63.207 -33.741  1.00  0.00    -0.007 C 
HETATM   25  C7  UNL     1       4.515  63.187 -33.155  1.00  0.00     0.011 C 
BRANCH  24  26
HETATM   26  C5  UNL     1       6.088  62.011 -34.704  1.00  0.00     0.087 C 
BRANCH  26  27
HETATM   27  C4  UNL     1       7.374  61.222 -34.493  1.00  0.00     0.150 C 
HETATM   28  O1  UNL     1       7.515  60.061 -34.866  1.00  0.00    -0.293 OA
BRANCH  27  29
HETATM   29  C3  UNL     1       8.452  61.929 -33.745  1.00  0.00     0.063 C 
HETATM   30  C2  UNL     1       9.389  62.715 -34.308  1.00  0.00     0.015 C 
HETATM   31  C1  UNL     1       9.499  63.092 -35.753  1.00  0.00     0.055 C 
BRANCH  30  32
HETATM   32  C30 UNL     1      10.385  63.269 -33.362  1.00  0.00     0.171 C 
HETATM   33  O3  UNL     1      10.145  63.911 -32.353  1.00  0.00    -0.646 OA
BRANCH  32  34
HETATM   34  O4  UNL     1      11.647  62.982 -33.717  1.00  0.00    -0.773 OA
HETATM   35  H44 UNL     1      12.191  63.384 -33.007  1.00  0.00     0.167 HD
ENDBRANCH  32  34
ENDBRANCH  30  32
ENDBRANCH  27  29
ENDBRANCH  26  27
ENDBRANCH  24  26
ENDBRANCH   1  24
TORSDOF 6
ENDMDL
