MODEL 1
REMARK minimizedAffinity -8.45380878
REMARK CNNscore 0.217318848
REMARK CNNaffinity 7.47050428
REMARK  12 active torsions:
REMARK  status: ('A' for Active; 'I' for Inactive)
REMARK    1  A    between atoms: C2_2  and  C3_3 
REMARK    2  A    between atoms: C6_6  and  C7_7 
REMARK    3  A    between atoms: C7_7  and  C8_8 
REMARK    4  A    between atoms: C15_19  and  C16_20 
REMARK    5  A    between atoms: C16_20  and  C17_21 
REMARK    6  A    between atoms: C18_22  and  C19_23 
REMARK    7  A    between atoms: C21_25  and  C22_26 
REMARK    8  A    between atoms: C23_28  and  C24_29 
REMARK    9  A    between atoms: C27_34  and  C28_35 
REMARK   10  A    between atoms: C28_35  and  C29_36 
REMARK   11  A    between atoms: C29_36  and  C30_37 
REMARK   12  A    between atoms: C30_37  and  O5_39 
ROOT
HETATM    1  C8  UNL     1      -0.119  50.843 -15.460  1.00  0.00     0.016 C 
HETATM    2  N1  UNL     1       0.116  51.823 -16.285  1.00  0.00    -0.362 N 
ATOM      3  H1  UNL     1       0.547  52.718 -16.053  1.00  0.00     0.165 HD
HETATM    4  C9  UNL     1      -0.325  51.429 -17.529  1.00  0.00     0.023 C 
HETATM    5  C10 UNL     1       0.151  52.016 -18.639  1.00  0.00    -0.000 A 
HETATM    6  C11 UNL     1       1.108  53.238 -18.613  1.00  0.00     0.127 A 
HETATM    7  C12 UNL     1       1.226  53.545 -20.135  1.00  0.00     0.166 A 
HETATM    8  O1  UNL     1       1.871  54.457 -20.635  1.00  0.00    -0.292 OA
HETATM    9  C13 UNL     1       0.455  52.560 -20.868  1.00  0.00     0.045 A 
HETATM   10  C14 UNL     1      -0.132  51.707 -19.981  1.00  0.00     0.055 A 
HETATM   11  N2  UNL     1      -0.808  50.754 -20.654  1.00  0.00    -0.357 N 
HETATM   12  C15 UNL     1      -0.701  51.034 -22.016  1.00  0.00     0.022 A 
HETATM   13  C25 UNL     1       0.101  52.172 -22.171  1.00  0.00    -0.023 A 
HETATM   14  C26 UNL     1       0.522  52.853 -23.422  1.00  0.00     0.051 C 
HETATM   15  C27 UNL     1      -1.275  50.261 -17.393  1.00  0.00     0.046 C 
HETATM   16  C32 UNL     1      -0.731  49.616 -16.100  1.00  0.00     0.041 C 
HETATM   17  C33 UNL     1       0.346  48.571 -16.391  1.00  0.00     0.017 C 
HETATM   18  H10 UNL     1      -1.298  49.959 -20.269  1.00  0.00     0.166 HD
ENDROOT
BRANCH  15  19
HETATM   19  C28 UNL     1      -2.743  50.696 -17.184  1.00  0.00     0.021 C 
BRANCH  19  20
HETATM   20  C29 UNL     1      -3.781  49.744 -17.779  1.00  0.00     0.112 C 
BRANCH  20  21
HETATM   21  C30 UNL     1      -3.835  49.863 -19.286  1.00  0.00     0.258 C 
HETATM   22  O4  UNL     1      -4.486  50.697 -19.898  1.00  0.00    -0.265 OA
BRANCH  21  23
HETATM   23  O5  UNL     1      -3.097  48.870 -19.855  1.00  0.00    -0.326 OA
HETATM   24  C31 UNL     1      -3.281  47.588 -19.251  1.00  0.00     0.213 C 
ENDBRANCH  21  23
ENDBRANCH  20  21
ENDBRANCH  19  20
ENDBRANCH  15  19
BRANCH   1  25
HETATM   25  C7  UNL     1       0.236  50.973 -14.029  1.00  0.00     0.055 C 
BRANCH  25  26
HETATM   26  C6  UNL     1      -0.202  51.807 -13.080  1.00  0.00     0.043 A 
HETATM   27  C4  UNL     1      -1.503  51.770 -12.420  1.00  0.00    -0.019 A 
HETATM   28  C3  UNL     1      -1.617  52.770 -11.518  1.00  0.00     0.039 A 
HETATM   29  C5  UNL     1      -2.517  50.724 -12.757  1.00  0.00     0.052 C 
HETATM   30  C34 UNL     1      -0.316  53.509 -11.583  1.00  0.00     0.256 A 
HETATM   31  N4  UNL     1       0.448  52.861 -12.526  1.00  0.00    -0.322 N 
HETATM   32  O6  UNL     1       0.029  54.489 -10.949  1.00  0.00    -0.267 OA
HETATM   33  H36 UNL     1       1.370  53.199 -12.736  1.00  0.00     0.169 HD
BRANCH  28  34
HETATM   34  C2  UNL     1      -2.735  53.084 -10.664  1.00  0.00     0.007 C 
HETATM   35  C1  UNL     1      -3.785  53.854 -10.975  1.00  0.00     0.012 C 
ENDBRANCH  28  34
ENDBRANCH  25  26
ENDBRANCH   1  25
BRANCH  12  36
HETATM   36  C16 UNL     1      -1.393  50.170 -23.025  1.00  0.00     0.115 C 
BRANCH  36  37
HETATM   37  C17 UNL     1      -1.413  50.797 -24.387  1.00  0.00     0.022 A 
HETATM   38  C18 UNL     1      -2.359  51.587 -25.027  1.00  0.00    -0.020 A 
HETATM   39  C21 UNL     1      -1.832  51.905 -26.331  1.00  0.00     0.040 A 
HETATM   40  C23 UNL     1      -0.585  51.302 -26.428  1.00  0.00     0.084 A 
HETATM   41  N3  UNL     1      -0.369  50.616 -25.258  1.00  0.00    -0.356 N 
HETATM   42  H20 UNL     1       0.464  50.062 -25.087  1.00  0.00     0.166 HD
BRANCH  38  43
HETATM   43  C19 UNL     1      -3.678  52.025 -24.462  1.00  0.00     0.037 C 
HETATM   44  C20 UNL     1      -4.682  50.885 -24.373  1.00  0.00     0.010 C 
ENDBRANCH  38  43
BRANCH  39  45
HETATM   45  C22 UNL     1      -2.466  52.710 -27.365  1.00  0.00     0.273 C 
HETATM   46  O2  UNL     1      -1.964  53.723 -27.842  1.00  0.00    -0.301 OA
ENDBRANCH  39  45
BRANCH  40  47
HETATM   47  C24 UNL     1       0.401  51.298 -27.485  1.00  0.00     0.288 C 
HETATM   48  O3  UNL     1       1.595  51.493 -27.271  1.00  0.00    -0.300 OA
ENDBRANCH  40  47
ENDBRANCH  36  37
ENDBRANCH  12  36
TORSDOF 12
ENDMDL
