MODEL 1
REMARK minimizedAffinity -8.86983109
REMARK  7 active torsions:
REMARK  status: ('A' for Active; 'I' for Inactive)
REMARK       I    between atoms: C1_2  and  N1_3 
REMARK    1  A    between atoms: C1_2  and  C8_12 
REMARK    2  A    between atoms: N1_3  and  C2_4 
REMARK    3  A    between atoms: C2_4  and  C3_5 
REMARK    4  A    between atoms: C14_19  and  C15_20 
REMARK    5  A    between atoms: C15_20  and  N4_21 
REMARK    6  A    between atoms: C17_23  and  C18_24 
REMARK    7  A    between atoms: C18_24  and  C19_25 
ROOT
HETATM    1  C8  UNL     1      -1.218  49.795 -19.712  1.00  0.00     0.110 C 
HETATM    2  C9  UNL     1      -2.754  49.922 -19.686  1.00  0.00     0.287 C 
HETATM    3  N3  UNL     1      -3.401  49.029 -20.686  1.00  0.00     0.095 N 
HETATM    4  C10 UNL     1      -2.822  47.668 -20.543  1.00  0.00     0.273 C 
HETATM    5  C11 UNL     1      -1.332  47.647 -20.935  1.00  0.00     0.036 C 
HETATM    6  C12 UNL     1      -0.818  49.097 -21.032  1.00  0.00     0.004 C 
HETATM    7  C13 UNL     1      -1.565  49.771 -22.204  1.00  0.00     0.043 C 
HETATM    8  C14 UNL     1      -3.086  49.513 -22.069  1.00  0.00     0.242 C 
ENDROOT
BRANCH   8   9
HETATM    9  C15 UNL     1      -3.940  50.732 -22.468  1.00  0.00     0.181 C 
BRANCH   9  10
HETATM   10  N4  UNL     1      -3.474  51.355 -23.689  1.00  0.00    -0.283 N 
HETATM   11  C16 UNL     1      -3.516  50.851 -24.954  1.00  0.00     0.134 A 
HETATM   12  C17 UNL     1      -2.951  51.844 -25.724  1.00  0.00     0.041 A 
HETATM   13  N5  UNL     1      -2.608  52.896 -24.915  1.00  0.00    -0.287 N 
HETATM   14  N6  UNL     1      -2.937  52.585 -23.669  1.00  0.00    -0.020 NA
ATOM     15  H5  UNL     1      -2.173  53.767 -25.220  1.00  0.00     0.184 HD
BRANCH  12  16
HETATM   16  C18 UNL     1      -2.705  51.890 -27.189  1.00  0.00     0.064 C 
BRANCH  16  17
HETATM   17  C19 UNL     1      -1.253  51.540 -27.574  1.00  0.00    -0.009 C 
HETATM   18  C20 UNL     1      -0.431  52.820 -27.842  1.00  0.00     0.005 C 
HETATM   19  C21 UNL     1       0.377  53.254 -26.625  1.00  0.00     0.000 C 
HETATM   20  C22 UNL     1       1.382  52.183 -26.200  1.00  0.00     0.000 C 
HETATM   21  C23 UNL     1       0.929  50.760 -26.527  1.00  0.00     0.000 C 
HETATM   22  C24 UNL     1      -0.590  50.638 -26.509  1.00  0.00     0.005 C 
ENDBRANCH  16  17
ENDBRANCH  12  16
ENDBRANCH   9  10
ENDBRANCH   8   9
BRANCH   1  23
HETATM   23  C1  UNL     1      -0.531  51.139 -19.496  1.00  0.00     0.224 C 
HETATM   24  O1  UNL     1      -0.420  51.986 -20.374  1.00  0.00    -0.273 OA
HETATM   25  N1  UNL     1      -0.013  51.300 -18.227  1.00  0.00    -0.356 N 
HETATM   26  H1  UNL     1       0.070  50.490 -17.627  1.00  0.00     0.162 HD
BRANCH  25  27
HETATM   27  C2  UNL     1       0.771  52.465 -17.874  1.00  0.00     0.162 C 
BRANCH  27  28
HETATM   28  C3  UNL     1       1.701  52.165 -16.736  1.00  0.00    -0.025 A 
HETATM   29  C4  UNL     1       2.995  52.694 -16.695  1.00  0.00     0.011 A 
HETATM   30  C5  UNL     1       3.837  52.378 -15.633  1.00  0.00     0.018 A 
HETATM   31  C6  UNL     1       3.358  51.537 -14.644  1.00  0.00     0.087 A 
HETATM   32  N2  UNL     1       2.118  51.001 -14.651  1.00  0.00    -0.375 N 
HETATM   33  C7  UNL     1       1.321  51.329 -15.692  1.00  0.00     0.096 A 
ATOM     34  H2  UNL     1       1.798  50.381 -13.907  1.00  0.00     0.164 HD
ENDBRANCH  27  28
ENDBRANCH  25  27
ENDBRANCH   1  23
TORSDOF 7
ENDMDL
