MODEL 1
REMARK minimizedAffinity -9.06254578
REMARK  4 active torsions:
REMARK  status: ('A' for Active; 'I' for Inactive)
REMARK    1  A    between atoms: C4_4  and  C5_5 
REMARK    2  A    between atoms: C5_5  and  C6_6 
REMARK    3  A    between atoms: C6_6  and  C7_7 
REMARK    4  A    between atoms: C7_7  and  C9_9 
ROOT
HETATM    1  C9  UNL     1      -2.766   7.863  13.974  1.00  0.00    -0.002 C 
HETATM    2  C10 UNL     1      -2.061   8.517  15.195  1.00  0.00     0.006 C 
HETATM    3  C11 UNL     1      -0.556   8.149  15.102  1.00  0.00     0.011 C 
HETATM    4  C12 UNL     1      -0.377   7.569  13.684  1.00  0.00    -0.032 C 
HETATM    5  C13 UNL     1      -0.222   8.801  12.734  1.00  0.00     0.016 C 
HETATM    6  C14 UNL     1       0.827   6.594  13.443  1.00  0.00     0.004 C 
HETATM    7  C15 UNL     1       2.189   7.200  13.826  1.00  0.00     0.007 C 
HETATM    8  C16 UNL     1       3.216   7.472  12.724  1.00  0.00     0.007 C 
HETATM    9  C17 UNL     1       2.664   7.633  11.299  1.00  0.00     0.010 C 
HETATM   10  C18 UNL     1       3.807   7.797  10.235  1.00  0.00     0.018 C 
HETATM   11  C19 UNL     1       4.598   9.098  10.481  1.00  0.00     0.023 C 
HETATM   12  C20 UNL     1       4.814   6.633  10.217  1.00  0.00     0.023 C 
HETATM   13  C21 UNL     1       3.152   7.875   8.848  1.00  0.00     0.135 C 
HETATM   14  O1  UNL     1       3.366   8.786   8.054  1.00  0.00    -0.297 OA
HETATM   15  C22 UNL     1       2.222   6.747   8.483  1.00  0.00     0.080 C 
HETATM   16  C23 UNL     1       1.112   6.674   9.517  1.00  0.00     0.018 C 
HETATM   17  C24 UNL     1       1.668   6.520  10.925  1.00  0.00    -0.026 A 
HETATM   18  C25 UNL     1       1.862   5.134  11.493  1.00  0.00     0.021 A 
HETATM   19  C26 UNL     1       0.724   5.987  12.022  1.00  0.00    -0.027 A 
HETATM   20  C27 UNL     1      -0.665   5.398  11.700  1.00  0.00     0.011 C 
HETATM   21  C28 UNL     1      -1.850   6.302  12.075  1.00  0.00     0.011 C 
HETATM   22  C29 UNL     1      -1.736   6.781  13.529  1.00  0.00    -0.032 C 
HETATM   23  C30 UNL     1      -1.864   5.536  14.460  1.00  0.00     0.016 C 
ENDROOT
BRANCH   1  24
HETATM   24  C7  UNL     1      -4.253   7.432  14.161  1.00  0.00    -0.014 C 
HETATM   25  C8  UNL     1      -5.255   8.103  13.215  1.00  0.00     0.010 C 
BRANCH  24  26
HETATM   26  C6  UNL     1      -4.364   5.888  14.038  1.00  0.00     0.008 C 
BRANCH  26  27
HETATM   27  C5  UNL     1      -5.650   5.413  13.352  1.00  0.00     0.028 C 
BRANCH  27  28
HETATM   28  C4  UNL     1      -5.403   4.192  12.508  1.00  0.00    -0.025 C 
HETATM   29  C2  UNL     1      -6.218   3.129  12.351  1.00  0.00    -0.091 C 
HETATM   30  C1  UNL     1      -7.545   2.932  13.043  1.00  0.00     0.042 C 
HETATM   31  C3  UNL     1      -5.831   2.001  11.431  1.00  0.00     0.042 C 
ENDBRANCH  27  28
ENDBRANCH  26  27
ENDBRANCH  24  26
ENDBRANCH   1  24
TORSDOF 4
ENDMDL
