MODEL 1
REMARK minimizedAffinity -7.07854366
REMARK CNNscore 0.888226509
REMARK CNNaffinity 6.60666609
REMARK  9 active torsions:
REMARK  status: ('A' for Active; 'I' for Inactive)
REMARK    1  A    between atoms: C2_2  and  C30_33 
REMARK    2  A    between atoms: C3_3  and  C4_4 
REMARK    3  A    between atoms: C4_4  and  C5_5 
REMARK    4  A    between atoms: C5_5  and  C6_6 
REMARK    5  A    between atoms: C6_6  and  C8_8 
REMARK    6  A    between atoms: C10_10  and  O1_11 
REMARK    7  A    between atoms: C23_24  and  O2_25 
REMARK    8  A    between atoms: C29_31  and  O3_32 
REMARK    9  A    between atoms: C30_33  and  O4_34 
ROOT
HETATM    1  C8  UNL     1     -13.344  46.264 -27.712  1.00  0.00     0.001 C 
HETATM    2  C9  UNL     1     -12.848  47.188 -26.566  1.00  0.00     0.038 C 
HETATM    3  C10 UNL     1     -11.404  47.601 -26.930  1.00  0.00     0.132 C 
HETATM    4  C11 UNL     1     -11.284  47.308 -28.448  1.00  0.00     0.016 C 
HETATM    5  C12 UNL     1     -11.971  48.471 -29.244  1.00  0.00     0.023 C 
HETATM    6  C13 UNL     1      -9.900  47.157 -29.075  1.00  0.00    -0.037 C 
HETATM    7  C14 UNL     1      -9.758  46.409 -30.203  1.00  0.00    -0.065 C 
HETATM    8  C15 UNL     1     -10.931  45.588 -30.774  1.00  0.00     0.036 C 
HETATM    9  C16 UNL     1     -12.260  45.575 -29.985  1.00  0.00     0.015 C 
HETATM   10  C17 UNL     1     -12.047  45.929 -28.509  1.00  0.00    -0.026 C 
HETATM   11  C18 UNL     1     -11.259  44.767 -27.843  1.00  0.00     0.016 C 
HETATM   12  C19 UNL     1      -8.389  46.288 -30.940  1.00  0.00    -0.016 C 
HETATM   13  C20 UNL     1      -7.843  44.891 -30.557  1.00  0.00     0.020 C 
HETATM   14  C21 UNL     1      -8.585  46.384 -32.485  1.00  0.00     0.016 C 
HETATM   15  C22 UNL     1      -7.495  47.134 -33.261  1.00  0.00     0.033 C 
HETATM   16  C23 UNL     1      -6.099  46.969 -32.674  1.00  0.00     0.126 C 
HETATM   17  C24 UNL     1      -6.019  47.491 -31.206  1.00  0.00    -0.017 C 
HETATM   18  C25 UNL     1      -5.578  48.984 -31.277  1.00  0.00     0.018 C 
HETATM   19  C26 UNL     1      -4.914  46.757 -30.417  1.00  0.00     0.018 C 
HETATM   20  C27 UNL     1      -7.434  47.454 -30.503  1.00  0.00     0.011 C 
HETATM   21  C28 UNL     1      -7.370  47.562 -28.972  1.00  0.00     0.043 C 
HETATM   22  C29 UNL     1      -8.749  47.856 -28.381  1.00  0.00     0.148 C 
ENDROOT
BRANCH   1  23
HETATM   23  C6  UNL     1     -14.355  45.147 -27.311  1.00  0.00    -0.013 C 
HETATM   24  C7  UNL     1     -15.070  45.336 -25.966  1.00  0.00     0.010 C 
BRANCH  23  25
HETATM   25  C5  UNL     1     -15.426  45.000 -28.437  1.00  0.00     0.008 C 
BRANCH  25  26
HETATM   26  C4  UNL     1     -16.629  44.119 -28.059  1.00  0.00     0.028 C 
BRANCH  26  27
HETATM   27  C3  UNL     1     -17.268  43.411 -29.219  1.00  0.00    -0.022 C 
HETATM   28  C2  UNL     1     -18.560  43.058 -29.377  1.00  0.00    -0.064 C 
HETATM   29  C1  UNL     1     -19.662  43.321 -28.385  1.00  0.00     0.045 C 
BRANCH  28  30
HETATM   30  C30 UNL     1     -19.006  42.324 -30.619  1.00  0.00     0.197 C 
BRANCH  30  31
HETATM   31  O4  UNL     1     -19.846  41.242 -30.248  1.00  0.00    -0.397 OA
HETATM   32  H50 UNL     1     -20.497  41.598 -29.619  1.00  0.00     0.209 HD
ENDBRANCH  30  31
ENDBRANCH  28  30
ENDBRANCH  26  27
ENDBRANCH  25  26
ENDBRANCH  23  25
ENDBRANCH   1  23
BRANCH   3  33
HETATM   33  O1  UNL     1     -11.146  48.963 -26.609  1.00  0.00    -0.394 OA
HETATM   34  H17 UNL     1     -11.405  49.093 -25.680  1.00  0.00     0.210 HD
ENDBRANCH   3  33
BRANCH  22  35
HETATM   35  O3  UNL     1      -8.960  49.264 -28.426  1.00  0.00    -0.391 OA
HETATM   36  H47 UNL     1      -9.700  49.442 -27.808  1.00  0.00     0.210 HD
ENDBRANCH  22  35
BRANCH  16  37
HETATM   37  O2  UNL     1      -5.717  45.600 -32.778  1.00  0.00    -0.395 OA
HETATM   38  H36 UNL     1      -5.732  45.362 -33.722  1.00  0.00     0.210 HD
ENDBRANCH  16  37
TORSDOF 9
ENDMDL
