MODEL 1
REMARK minimizedAffinity -7.37632084
REMARK CNNscore 0.793455482
REMARK CNNaffinity 7.28001022
REMARK  6 active torsions:
REMARK  status: ('A' for Active; 'I' for Inactive)
REMARK    1  A    between atoms: C2_2  and  C30_31 
REMARK    2  A    between atoms: C3_3  and  C4_4 
REMARK    3  A    between atoms: C4_4  and  C5_5 
REMARK    4  A    between atoms: C5_5  and  C6_6 
REMARK    5  A    between atoms: C6_6  and  C8_8 
REMARK    6  A    between atoms: C30_31  and  O2_32 
ROOT
HETATM    1  C8  UNL     1      -1.863  52.472 -10.980  1.00  0.00    -0.002 C 
HETATM    2  C9  UNL     1      -1.237  51.070 -11.252  1.00  0.00     0.007 C 
HETATM    3  C10 UNL     1       0.275  51.173 -10.974  1.00  0.00     0.015 C 
HETATM    4  C11 UNL     1       0.550  52.685 -10.879  1.00  0.00    -0.013 C 
HETATM    5  C12 UNL     1       0.711  53.188 -12.348  1.00  0.00     0.021 C 
HETATM    6  C13 UNL     1       1.802  53.140 -10.134  1.00  0.00    -0.070 C 
HETATM    7  C14 UNL     1       2.935  52.412 -10.098  1.00  0.00    -0.022 C 
HETATM    8  C15 UNL     1       4.214  52.857  -9.448  1.00  0.00     0.034 C 
HETATM    9  C16 UNL     1       4.082  54.157  -8.622  1.00  0.00     0.013 C 
HETATM   10  C17 UNL     1       5.442  54.674  -8.037  1.00  0.00     0.018 C 
HETATM   11  C18 UNL     1       6.593  54.815  -9.046  1.00  0.00     0.023 C 
HETATM   12  C19 UNL     1       5.928  53.686  -6.946  1.00  0.00     0.023 C 
HETATM   13  C20 UNL     1       5.231  56.043  -7.375  1.00  0.00     0.135 C 
HETATM   14  O1  UNL     1       5.763  56.350  -6.306  1.00  0.00    -0.297 OA
HETATM   15  C21 UNL     1       4.418  57.062  -8.130  1.00  0.00     0.080 C 
HETATM   16  C22 UNL     1       3.062  56.483  -8.495  1.00  0.00     0.017 C 
HETATM   17  C23 UNL     1       3.157  55.200  -9.357  1.00  0.00    -0.031 C 
HETATM   18  C24 UNL     1       3.655  55.585 -10.773  1.00  0.00     0.016 C 
HETATM   19  C25 UNL     1       1.732  54.513  -9.453  1.00  0.00     0.024 C 
HETATM   20  C26 UNL     1       0.608  55.407 -10.023  1.00  0.00     0.010 C 
HETATM   21  C27 UNL     1      -0.775  54.726 -10.151  1.00  0.00     0.011 C 
HETATM   22  C28 UNL     1      -0.746  53.181 -10.144  1.00  0.00    -0.029 C 
HETATM   23  C29 UNL     1      -0.847  52.676  -8.669  1.00  0.00     0.016 C 
ENDROOT
BRANCH   1  24
HETATM   24  C6  UNL     1      -3.314  52.370 -10.416  1.00  0.00    -0.014 C 
HETATM   25  C7  UNL     1      -4.087  53.682 -10.597  1.00  0.00     0.010 C 
BRANCH  24  26
HETATM   26  C5  UNL     1      -4.079  51.204 -11.106  1.00  0.00     0.008 C 
BRANCH  26  27
HETATM   27  C4  UNL     1      -4.756  50.235 -10.129  1.00  0.00     0.028 C 
BRANCH  27  28
HETATM   28  C3  UNL     1      -5.575  49.202 -10.856  1.00  0.00    -0.022 C 
HETATM   29  C2  UNL     1      -6.800  48.752 -10.517  1.00  0.00    -0.064 C 
HETATM   30  C1  UNL     1      -7.528  47.765 -11.389  1.00  0.00     0.045 C 
BRANCH  29  31
HETATM   31  C30 UNL     1      -7.549  49.189  -9.285  1.00  0.00     0.197 C 
BRANCH  31  32
HETATM   32  O2  UNL     1      -8.278  50.380  -9.551  1.00  0.00    -0.397 OA
HETATM   33  H48 UNL     1      -8.216  50.554 -10.506  1.00  0.00     0.209 HD
ENDBRANCH  31  32
ENDBRANCH  29  31
ENDBRANCH  27  28
ENDBRANCH  26  27
ENDBRANCH  24  26
ENDBRANCH   1  24
TORSDOF 6
ENDMDL
