MODEL 1
REMARK minimizedAffinity -9.97597027
REMARK  5 active torsions:
REMARK  status: ('A' for Active; 'I' for Inactive)
REMARK    1  A    between atoms: C2_2  and  C4_4 
REMARK    2  A    between atoms: C7_7  and  C8_8 
REMARK    3  A    between atoms: C8_8  and  O2_10 
REMARK    4  A    between atoms: C11_13  and  C12_14 
REMARK    5  A    between atoms: C12_14  and  O4_16 
ROOT
HETATM    1  C4  UNL     1      -5.529  47.908 -25.650  1.00  0.00     0.019 C 
HETATM    2  C5  UNL     1      -7.024  47.652 -25.985  1.00  0.00     0.011 C 
HETATM    3  C6  UNL     1      -7.847  48.376 -24.905  1.00  0.00     0.021 C 
HETATM    4  C7  UNL     1      -6.882  48.492 -23.720  1.00  0.00     0.050 C 
HETATM    5  C9  UNL     1      -7.223  49.579 -22.695  1.00  0.00     0.022 C 
HETATM    6  C10 UNL     1      -6.048  49.804 -21.717  1.00  0.00     0.023 C 
HETATM    7  C11 UNL     1      -4.685  50.168 -22.418  1.00  0.00     0.057 C 
HETATM    8  C13 UNL     1      -4.391  49.043 -23.489  1.00  0.00     0.011 C 
HETATM    9  C14 UNL     1      -3.026  49.171 -24.174  1.00  0.00     0.007 C 
HETATM   10  C15 UNL     1      -1.874  49.357 -23.187  1.00  0.00     0.006 C 
HETATM   11  C16 UNL     1      -2.114  50.503 -22.180  1.00  0.00     0.003 C 
HETATM   12  C17 UNL     1      -0.824  50.918 -21.331  1.00  0.00    -0.035 C 
HETATM   13  C18 UNL     1      -0.242  49.725 -20.538  1.00  0.00     0.016 C 
HETATM   14  C19 UNL     1       0.280  51.423 -22.313  1.00  0.00     0.017 C 
HETATM   15  C20 UNL     1       1.473  52.088 -21.640  1.00  0.00     0.080 C 
HETATM   16  C21 UNL     1       1.050  53.191 -20.703  1.00  0.00     0.135 C 
HETATM   17  O5  UNL     1       1.652  54.268 -20.717  1.00  0.00    -0.297 OA
HETATM   18  C22 UNL     1      -0.059  52.880 -19.684  1.00  0.00     0.017 C 
HETATM   19  C23 UNL     1       0.558  52.105 -18.511  1.00  0.00     0.023 C 
HETATM   20  C24 UNL     1      -0.567  54.231 -19.119  1.00  0.00     0.023 C 
HETATM   21  C25 UNL     1      -1.227  52.144 -20.429  1.00  0.00     0.009 C 
HETATM   22  C26 UNL     1      -2.432  51.800 -19.533  1.00  0.00     0.007 C 
HETATM   23  C27 UNL     1      -3.660  51.454 -20.379  1.00  0.00     0.011 C 
HETATM   24  C28 UNL     1      -3.454  50.274 -21.371  1.00  0.00    -0.022 C 
HETATM   25  C29 UNL     1      -3.392  48.980 -20.510  1.00  0.00     0.017 C 
HETATM   26  C30 UNL     1      -5.585  48.897 -24.463  1.00  0.00     0.018 C 
ENDROOT
BRANCH   4  27
HETATM   27  C8  UNL     1      -6.848  47.125 -23.018  1.00  0.00     0.149 C 
HETATM   28  O1  UNL     1      -7.746  46.305 -22.938  1.00  0.00    -0.649 OA
BRANCH  27  29
HETATM   29  O2  UNL     1      -5.663  46.867 -22.428  1.00  0.00    -0.776 OA
HETATM   30  H11 UNL     1      -5.788  45.987 -22.016  1.00  0.00     0.167 HD
ENDBRANCH  27  29
ENDBRANCH   4  27
BRANCH   1  31
HETATM   31  C2  UNL     1      -4.743  48.348 -26.875  1.00  0.00    -0.088 C 
HETATM   32  C1  UNL     1      -3.611  49.061 -26.745  1.00  0.00     0.014 C 
HETATM   33  C3  UNL     1      -5.241  47.952 -28.240  1.00  0.00     0.043 C 
ENDBRANCH   1  31
BRANCH   7  34
HETATM   34  C12 UNL     1      -4.944  51.560 -23.058  1.00  0.00     0.149 C 
HETATM   35  O3  UNL     1      -4.627  52.640 -22.582  1.00  0.00    -0.649 OA
BRANCH  34  36
HETATM   36  O4  UNL     1      -5.550  51.550 -24.253  1.00  0.00    -0.776 OA
HETATM   37  H16 UNL     1      -5.607  52.499 -24.497  1.00  0.00     0.167 HD
ENDBRANCH  34  36
ENDBRANCH   7  34
TORSDOF 5
ENDMDL
