MODEL 1
REMARK minimizedAffinity -9.42280293
REMARK  9 active torsions:
REMARK  status: ('A' for Active; 'I' for Inactive)
REMARK    1  A    between atoms: C2_2  and  C3_3 
REMARK    2  A    between atoms: C2_2  and  C9_11 
REMARK    3  A    between atoms: C3_3  and  C4_4 
REMARK    4  A    between atoms: C4_4  and  C5_5 
REMARK    5  A    between atoms: C5_5  and  O1_6 
REMARK    6  A    between atoms: C5_5  and  C6_7 
REMARK    7  A    between atoms: C6_7  and  O2_10 
REMARK    8  A    between atoms: C12_14  and  C13_15 
REMARK    9  A    between atoms: C13_15  and  O4_17 
ROOT
HETATM    1  C9  UNL     1      -1.913  49.602 -18.182  1.00  0.00    -0.001 C 
HETATM    2  C10 UNL     1      -2.934  48.463 -18.416  1.00  0.00     0.007 C 
HETATM    3  C11 UNL     1      -3.431  48.612 -19.863  1.00  0.00     0.022 C 
HETATM    4  C12 UNL     1      -2.215  49.200 -20.610  1.00  0.00     0.057 C 
HETATM    5  C14 UNL     1      -2.557  49.876 -21.960  1.00  0.00     0.014 C 
HETATM    6  C15 UNL     1      -2.944  48.878 -23.064  1.00  0.00     0.007 C 
HETATM    7  C16 UNL     1      -3.307  49.609 -24.355  1.00  0.00     0.007 C 
HETATM    8  C17 UNL     1      -2.057  50.271 -24.954  1.00  0.00     0.010 C 
HETATM    9  C18 UNL     1      -2.305  51.034 -26.296  1.00  0.00     0.018 C 
HETATM   10  C19 UNL     1      -3.406  52.104 -26.203  1.00  0.00     0.023 C 
HETATM   11  C20 UNL     1      -2.666  50.042 -27.416  1.00  0.00     0.023 C 
HETATM   12  C21 UNL     1      -1.009  51.741 -26.723  1.00  0.00     0.135 C 
HETATM   13  O5  UNL     1      -0.972  52.522 -27.675  1.00  0.00    -0.297 OA
HETATM   14  C22 UNL     1       0.251  51.384 -25.976  1.00  0.00     0.080 C 
HETATM   15  C23 UNL     1       0.066  51.613 -24.483  1.00  0.00     0.018 C 
HETATM   16  C24 UNL     1      -1.291  51.145 -23.952  1.00  0.00    -0.026 A 
HETATM   17  C25 UNL     1      -2.037  52.135 -23.093  1.00  0.00     0.021 A 
HETATM   18  C26 UNL     1      -1.476  50.892 -22.425  1.00  0.00    -0.027 A 
HETATM   19  C27 UNL     1      -0.249  51.111 -21.516  1.00  0.00     0.011 C 
HETATM   20  C28 UNL     1      -0.384  50.843 -20.004  1.00  0.00     0.012 C 
HETATM   21  C29 UNL     1      -1.743  50.285 -19.586  1.00  0.00    -0.022 C 
HETATM   22  C30 UNL     1      -2.695  51.541 -19.525  1.00  0.00     0.017 C 
ENDROOT
BRANCH   1  23
HETATM   23  C2  UNL     1      -0.662  49.227 -17.332  1.00  0.00    -0.014 C 
HETATM   24  C1  UNL     1      -0.943  48.467 -16.034  1.00  0.00     0.010 C 
BRANCH  23  25
HETATM   25  C3  UNL     1       0.155  50.513 -17.024  1.00  0.00     0.007 C 
BRANCH  25  26
HETATM   26  C4  UNL     1       0.907  50.462 -15.684  1.00  0.00     0.035 C 
BRANCH  26  27
HETATM   27  C5  UNL     1       1.634  51.782 -15.388  1.00  0.00     0.151 C 
BRANCH  27  28
HETATM   28  O1  UNL     1       0.761  52.612 -14.605  1.00  0.00    -0.393 OA
HETATM   29  H10 UNL     1       1.113  53.517 -14.694  1.00  0.00     0.210 HD
ENDBRANCH  27  28
BRANCH  27  30
HETATM   30  C6  UNL     1       2.984  51.626 -14.636  1.00  0.00     0.076 C 
HETATM   31  C7  UNL     1       4.171  51.995 -15.528  1.00  0.00     0.048 C 
HETATM   32  C8  UNL     1       3.191  50.229 -14.041  1.00  0.00     0.048 C 
BRANCH  30  33
HETATM   33  O2  UNL     1       2.978  52.572 -13.547  1.00  0.00    -0.388 OA
HETATM   34  H17 UNL     1       2.448  52.174 -12.832  1.00  0.00     0.210 HD
ENDBRANCH  30  33
ENDBRANCH  27  30
ENDBRANCH  26  27
ENDBRANCH  25  26
ENDBRANCH  23  25
ENDBRANCH   1  23
BRANCH   4  35
HETATM   35  C13 UNL     1      -1.181  48.080 -20.889  1.00  0.00     0.149 C 
HETATM   36  O3  UNL     1       0.028  48.129 -20.727  1.00  0.00    -0.649 OA
BRANCH  35  37
HETATM   37  O4  UNL     1      -1.692  46.954 -21.423  1.00  0.00    -0.776 OA
HETATM   38  H23 UNL     1      -0.906  46.380 -21.543  1.00  0.00     0.167 HD
ENDBRANCH  35  37
ENDBRANCH   4  35
TORSDOF 9
ENDMDL
