MODEL 1
REMARK minimizedAffinity -7.99483299
REMARK CNNscore 0.438368171
REMARK CNNaffinity 7.11844873
REMARK  10 active torsions:
REMARK  status: ('A' for Active; 'I' for Inactive)
REMARK    1  A    between atoms: C2_2  and  C3_3 
REMARK    2  A    between atoms: C3_3  and  C4_4 
REMARK    3  A    between atoms: C4_4  and  O1_5 
REMARK    4  A    between atoms: O1_5  and  C5_6 
REMARK    5  A    between atoms: C5_6  and  C6_7 
REMARK    6  A    between atoms: C10_11  and  C12_13 
REMARK    7  A    between atoms: C12_13  and  C13_15 
REMARK    8  A    between atoms: C13_15  and  S1_16 
REMARK    9  A    between atoms: S1_16  and  C14_17 
REMARK   10  A    between atoms: C15_20  and  C16_21 
ROOT
HETATM    1  C12 UNL     1       0.161   5.698  11.863  1.00  0.00     0.171 C 
HETATM    2  O2  UNL     1      -0.134   5.903  10.681  1.00  0.00    -0.294 OA
ENDROOT
BRANCH   1   3
HETATM    3  C10 UNL     1       0.600   6.872  12.764  1.00  0.00     0.129 C 
HETATM    4  C9  UNL     1       0.173   6.673  14.217  1.00  0.00     0.076 C 
HETATM    5  C8  UNL     1      -1.125   7.458  14.329  1.00  0.00     0.141 C 
HETATM    6  C7  UNL     1      -1.347   8.014  15.723  1.00  0.00     0.065 C 
HETATM    7  C22 UNL     1      -0.962   8.485  13.256  1.00  0.00     0.279 C 
HETATM    8  C23 UNL     1      -2.354   6.644  14.075  1.00  0.00     0.278 C 
HETATM    9  C6  UNL     1      -2.825   7.793  15.997  1.00  0.00     0.157 C 
HETATM   10  O6  UNL     1      -3.245   6.766  15.096  1.00  0.00    -0.313 OA
HETATM   11  O3  UNL     1       0.028   8.124  12.389  1.00  0.00    -0.301 OA
HETATM   12  O4  UNL     1      -1.624   9.502  13.131  1.00  0.00    -0.264 OA
HETATM   13  O5  UNL     1      -2.550   5.965  13.080  1.00  0.00    -0.264 OA
HETATM   14  C11 UNL     1       2.119   6.994  12.638  1.00  0.00     0.055 C 
BRANCH   9  15
HETATM   15  C5  UNL     1      -3.697   9.043  15.828  1.00  0.00     0.200 C 
BRANCH  15  16
HETATM   16  O1  UNL     1      -4.618   8.881  14.751  1.00  0.00    -0.389 OA
BRANCH  16  17
HETATM   17  C4  UNL     1      -5.990   8.906  15.135  1.00  0.00     0.167 C 
BRANCH  17  18
HETATM   18  C3  UNL     1      -6.508   7.535  15.570  1.00  0.00     0.026 C 
BRANCH  18  19
HETATM   19  C2  UNL     1      -7.789   7.580  16.408  1.00  0.00    -0.002 C 
HETATM   20  C1  UNL     1      -8.885   6.643  15.923  1.00  0.00     0.005 C 
ENDBRANCH  18  19
ENDBRANCH  17  18
ENDBRANCH  16  17
ENDBRANCH  15  16
ENDBRANCH   9  15
ENDBRANCH   1   3
BRANCH   1  21
HETATM   21  C13 UNL     1       0.082   4.329  12.528  1.00  0.00     0.164 C 
BRANCH  21  22
HETATM   22  S1  UNL     1      -0.263   3.005  11.336  1.00  0.00    -0.085 SA
BRANCH  22  23
HETATM   23  C14 UNL     1      -1.970   3.163  11.191  1.00  0.00     0.161 A 
HETATM   24  N1  UNL     1      -2.867   3.220  12.142  1.00  0.00    -0.320 N 
HETATM   25  C15 UNL     1      -4.059   3.291  11.437  1.00  0.00     0.134 A 
ATOM     26  H1  UNL     1      -2.725   3.214  13.152  1.00  0.00     0.169 HD
HETATM   27  N2  UNL     1      -3.900   3.369  10.107  1.00  0.00    -0.283 N 
HETATM   28  N3  UNL     1      -2.566   3.266   9.979  1.00  0.00    -0.278 N 
ATOM     29  H2  UNL     1      -4.608   3.478   9.381  1.00  0.00     0.188 HD
HETATM   30  H26 UNL     1      -2.138   3.282   9.062  1.00  0.00     0.189 HD
BRANCH  25  31
HETATM   31  C16 UNL     1      -5.349   3.354  12.116  1.00  0.00     0.031 A 
HETATM   32  C17 UNL     1      -5.609   4.470  12.934  1.00  0.00     0.017 A 
HETATM   33  C18 UNL     1      -6.829   4.608  13.602  1.00  0.00     0.001 A 
HETATM   34  C19 UNL     1      -7.807   3.630  13.467  1.00  0.00     0.002 A 
HETATM   35  C20 UNL     1      -7.561   2.509  12.673  1.00  0.00     0.025 A 
HETATM   36  C21 UNL     1      -6.339   2.364  12.003  1.00  0.00     0.048 A 
HETATM   37 CL1  UNL     1      -6.124   0.896  11.109  1.00  0.00    -0.083 Cl
ENDBRANCH  25  31
ENDBRANCH  22  23
ENDBRANCH  21  22
ENDBRANCH   1  21
TORSDOF 10
ENDMDL
