MODEL 1
REMARK minimizedAffinity -7.81067753
REMARK  10 active torsions:
REMARK  status: ('A' for Active; 'I' for Inactive)
REMARK    1  A    between atoms: N1_2  and  C2_3 
REMARK    2  A    between atoms: C2_3  and  C3_4 
REMARK    3  A    between atoms: C3_4  and  O1_5 
REMARK    4  A    between atoms: O1_5  and  C4_6 
REMARK    5  A    between atoms: C4_6  and  C5_8 
REMARK    6  A    between atoms: C17_21  and  O4_22 
REMARK    7  A    between atoms: O4_22  and  C18_23 
REMARK    8  A    between atoms: C18_23  and  C19_25 
REMARK    9  A    between atoms: C19_25  and  C20_26 
REMARK   10  A    between atoms: C20_26  and  O6_29 
ROOT
HETATM    1  C5  UNL     1      -1.505  48.788 -17.047  1.00  0.00     0.085 C 
HETATM    2  C6  UNL     1      -1.188  49.054 -18.329  1.00  0.00    -0.070 C 
HETATM    3  C7  UNL     1      -1.600  48.007 -19.350  1.00  0.00     0.035 C 
HETATM    4  C8  UNL     1      -1.022  48.258 -20.740  1.00  0.00     0.010 C 
HETATM    5  C9  UNL     1      -1.264  49.683 -21.310  1.00  0.00     0.006 C 
HETATM    6  C10 UNL     1      -1.242  50.773 -20.177  1.00  0.00     0.068 C 
HETATM    7  C11 UNL     1      -2.621  51.307 -19.771  1.00  0.00     0.132 C 
HETATM    8  O3  UNL     1      -2.821  51.842 -18.681  1.00  0.00    -0.298 OA
HETATM    9  C12 UNL     1      -3.719  51.363 -20.798  1.00  0.00     0.085 C 
HETATM   10  C13 UNL     1      -3.790  50.089 -21.640  1.00  0.00     0.011 C 
HETATM   11  C14 UNL     1      -5.117  49.994 -22.505  1.00  0.00    -0.016 C 
HETATM   12  C15 UNL     1      -6.329  49.808 -21.545  1.00  0.00     0.018 C 
HETATM   13  C16 UNL     1      -5.430  51.264 -23.331  1.00  0.00     0.018 C 
HETATM   14  C17 UNL     1      -5.049  48.737 -23.431  1.00  0.00     0.140 C 
HETATM   15  C23 UNL     1      -3.761  48.689 -24.255  1.00  0.00     0.034 C 
HETATM   16  C24 UNL     1      -2.559  48.629 -23.323  1.00  0.00     0.012 C 
HETATM   17  C25 UNL     1      -2.430  49.864 -22.386  1.00  0.00    -0.035 C 
HETATM   18  C26 UNL     1      -2.002  51.077 -23.263  1.00  0.00     0.016 C 
HETATM   19  C27 UNL     1      -0.452  50.250 -18.936  1.00  0.00     0.022 C 
HETATM   20  C28 UNL     1       0.049  51.370 -18.012  1.00  0.00     0.015 C 
ENDROOT
BRANCH   1  21
HETATM   21  C4  UNL     1      -1.310  49.585 -15.825  1.00  0.00     0.283 C 
HETATM   22  O2  UNL     1      -0.211  49.769 -15.321  1.00  0.00    -0.260 OA
BRANCH  21  23
HETATM   23  O1  UNL     1      -2.516  49.860 -15.285  1.00  0.00    -0.316 OA
BRANCH  23  24
HETATM   24  C3  UNL     1      -2.818  51.252 -15.107  1.00  0.00     0.209 C 
BRANCH  24  25
HETATM   25  C2  UNL     1      -3.168  51.522 -13.642  1.00  0.00     0.295 C 
BRANCH  25  26
HETATM   26  N1  UNL     1      -3.444  52.929 -13.333  1.00  0.00     0.081 N 
HETATM   27  C1  UNL     1      -3.971  53.098 -11.977  1.00  0.00     0.306 C 
HETATM   28  H4  UNL     1      -4.150  53.260 -13.996  1.00  0.00     0.315 HD
ENDBRANCH  25  26
ENDBRANCH  24  25
ENDBRANCH  23  24
ENDBRANCH  21  23
ENDBRANCH   1  21
BRANCH  14  29
HETATM   29  O4  UNL     1      -6.148  48.709 -24.366  1.00  0.00    -0.315 OA
BRANCH  29  30
HETATM   30  C18 UNL     1      -6.907  47.575 -24.402  1.00  0.00     0.262 C 
HETATM   31  O5  UNL     1      -7.085  46.812 -23.460  1.00  0.00    -0.265 OA
BRANCH  30  32
HETATM   32  C19 UNL     1      -7.536  47.434 -25.767  1.00  0.00     0.148 C 
BRANCH  32  33
HETATM   33  C20 UNL     1      -8.850  48.218 -25.923  1.00  0.00     0.059 C 
HETATM   34  C21 UNL     1     -10.036  47.566 -25.202  1.00  0.00     0.045 C 
HETATM   35  C22 UNL     1      -9.183  48.342 -27.413  1.00  0.00     0.045 C 
BRANCH  33  36
HETATM   36  O6  UNL     1      -8.675  49.547 -25.436  1.00  0.00    -0.390 OA
HETATM   37  H34 UNL     1      -8.624  49.503 -24.458  1.00  0.00     0.210 HD
ENDBRANCH  33  36
ENDBRANCH  32  33
ENDBRANCH  30  32
ENDBRANCH  29  30
ENDBRANCH  14  29
TORSDOF 10
ENDMDL
