MODEL 1
REMARK minimizedAffinity -9.10144615
REMARK CNNscore 0.789723039
REMARK CNNaffinity 7.31977844
REMARK  13 active torsions:
REMARK  status: ('A' for Active; 'I' for Inactive)
REMARK    1  A    between atoms: O1_2  and  C2_3 
REMARK    2  A    between atoms: C2_3  and  C3_4 
REMARK    3  A    between atoms: C3_4  and  C4_5 
REMARK    4  A    between atoms: C4_5  and  O2_6 
REMARK    5  A    between atoms: O2_6  and  C5_7 
REMARK    6  A    between atoms: C18_21  and  C19_22 
REMARK    7  A    between atoms: C25_28  and  C26_29 
REMARK    8  A    between atoms: C26_29  and  O4_31 
REMARK    9  A    between atoms: C26_29  and  C28_32 
REMARK   10  A    between atoms: C28_32  and  O5_33 
REMARK   11  A    between atoms: C28_32  and  C29_34 
REMARK   12  A    between atoms: C34_41  and  O7_42 
REMARK   13  A    between atoms: C39_47  and  O8_48 
ROOT
HETATM    1  C5  UNL     1      -4.695   7.653  14.615  1.00  0.00     0.122 C 
HETATM    2  C6  UNL     1      -3.439   7.850  15.475  1.00  0.00     0.033 C 
HETATM    3  C7  UNL     1      -2.450   6.691  15.370  1.00  0.00     0.013 C 
HETATM    4  C8  UNL     1      -2.051   6.265  13.910  1.00  0.00    -0.026 C 
HETATM    5  C9  UNL     1      -2.309   4.737  13.821  1.00  0.00     0.016 C 
HETATM    6  C10 UNL     1      -2.940   6.995  12.865  1.00  0.00     0.071 C 
HETATM    7  C11 UNL     1      -4.420   6.944  13.279  1.00  0.00     0.045 C 
HETATM    8  C12 UNL     1      -2.543   8.450  12.630  1.00  0.00     0.154 C 
HETATM    9  O3  UNL     1      -3.336   9.299  12.225  1.00  0.00    -0.293 OA
HETATM   10  C13 UNL     1      -1.144   8.864  12.850  1.00  0.00     0.057 C 
HETATM   11  C14 UNL     1      -0.219   7.995  13.274  1.00  0.00    -0.037 C 
HETATM   12  C15 UNL     1      -0.519   6.550  13.670  1.00  0.00     0.026 C 
HETATM   13  C16 UNL     1       0.231   5.607  12.691  1.00  0.00     0.011 C 
HETATM   14  C17 UNL     1       1.740   5.954  12.525  1.00  0.00     0.014 C 
HETATM   15  C18 UNL     1       1.977   7.443  12.109  1.00  0.00     0.005 C 
HETATM   16  C25 UNL     1       3.441   7.964  12.367  1.00  0.00     0.034 C 
HETATM   17  C37 UNL     1       3.261   9.494  12.602  1.00  0.00     0.012 C 
HETATM   18  C38 UNL     1       1.832   9.711  13.133  1.00  0.00     0.044 C 
HETATM   19  C39 UNL     1       1.259   8.298  13.260  1.00  0.00     0.090 C 
ENDROOT
BRANCH  16  20
HETATM   20  C26 UNL     1       4.781   7.571  11.645  1.00  0.00     0.087 C 
HETATM   21  C27 UNL     1       4.561   7.336  10.144  1.00  0.00     0.049 C 
BRANCH  20  22
HETATM   22  O4  UNL     1       5.098   6.262  12.202  1.00  0.00    -0.387 OA
HETATM   23  H42 UNL     1       4.413   5.637  11.903  1.00  0.00     0.210 HD
ENDBRANCH  20  22
BRANCH  20  24
HETATM   24  C28 UNL     1       6.033   8.464  11.943  1.00  0.00     0.181 C 
BRANCH  24  25
HETATM   25  O5  UNL     1       6.987   8.400  10.883  1.00  0.00    -0.390 OA
HETATM   26  H44 UNL     1       7.495   7.582  11.050  1.00  0.00     0.210 HD
ENDBRANCH  24  25
BRANCH  24  27
HETATM   27  C29 UNL     1       6.792   8.129  13.254  1.00  0.00     0.158 C 
HETATM   28  O6  UNL     1       8.215   7.929  12.931  1.00  0.00    -0.373 OA
HETATM   29  C30 UNL     1       8.941   8.463  14.045  1.00  0.00     0.185 C 
HETATM   30  C31 UNL     1       8.190   9.737  14.353  1.00  0.00     0.027 C 
HETATM   31  C34 UNL     1      10.417   8.784  13.786  1.00  0.00     0.383 C 
HETATM   32  C32 UNL     1       8.779  10.388  15.594  1.00  0.00     0.038 C 
HETATM   33  C35 UNL     1       6.767   9.212  14.381  1.00  0.00     0.020 C 
HETATM   34  C33 UNL     1      10.288  10.622  15.380  1.00  0.00     0.273 C 
HETATM   35  N1  UNL     1      10.994   9.403  14.973  1.00  0.00     0.114 N 
HETATM   36  H52 UNL     1      11.976   9.594  14.783  1.00  0.00     0.319 HD
HETATM   37  C36 UNL     1       5.714  10.306  14.289  1.00  0.00     0.013 C 
BRANCH  31  38
HETATM   38  O7  UNL     1      11.133   7.596  13.505  1.00  0.00    -0.366 OA
HETATM   39  H54 UNL     1      10.590   7.115  12.852  1.00  0.00     0.212 HD
ENDBRANCH  31  38
ENDBRANCH  24  27
ENDBRANCH  20  24
ENDBRANCH  16  20
BRANCH  15  40
HETATM   40  C19 UNL     1       1.331   7.673  10.646  1.00  0.00    -0.002 C 
HETATM   41  C20 UNL     1       2.357   7.636   9.473  1.00  0.00     0.005 C 
HETATM   42  C21 UNL     1       1.858   8.251   8.160  1.00  0.00     0.000 C 
HETATM   43  C22 UNL     1       0.366   8.035   7.977  1.00  0.00     0.000 C 
HETATM   44  C23 UNL     1      -0.432   8.679   9.105  1.00  0.00     0.000 C 
HETATM   45  C24 UNL     1       0.346   8.830  10.421  1.00  0.00     0.005 C 
ENDBRANCH  15  40
BRANCH  19  46
HETATM   46  O8  UNL     1       1.727   7.880  14.567  1.00  0.00    -0.384 OA
HETATM   47  H63 UNL     1       1.215   8.375  15.228  1.00  0.00     0.211 HD
ENDBRANCH  19  46
BRANCH   1  48
HETATM   48  O2  UNL     1      -5.647   6.852  15.327  1.00  0.00    -0.386 OA
BRANCH  48  49
HETATM   49  C4  UNL     1      -6.719   7.611  15.901  1.00  0.00     0.170 C 
BRANCH  49  50
HETATM   50  C3  UNL     1      -7.775   6.671  16.478  1.00  0.00     0.052 C 
BRANCH  50  51
HETATM   51  C2  UNL     1      -8.709   6.133  15.401  1.00  0.00     0.169 C 
BRANCH  51  52
HETATM   52  O1  UNL     1      -8.504   6.770  14.141  1.00  0.00    -0.396 OA
HETATM   53  C1  UNL     1      -8.306   5.848  13.074  1.00  0.00     0.201 C 
ENDBRANCH  51  52
ENDBRANCH  50  51
ENDBRANCH  49  50
ENDBRANCH  48  49
ENDBRANCH   1  48
TORSDOF 13
ENDMDL
