MODEL 1
REMARK minimizedAffinity -9.06700802
REMARK CNNscore 0.558742642
REMARK CNNaffinity 7.25927353
REMARK  10 active torsions:
REMARK  status: ('A' for Active; 'I' for Inactive)
REMARK    1  A    between atoms: C15_16  and  C16_17 
REMARK    2  A    between atoms: C16_17  and  O2_18 
REMARK    3  A    between atoms: C29_32  and  C30_33 
REMARK    4  A    between atoms: C30_33  and  O5_35 
REMARK    5  A    between atoms: O5_35  and  C31_36 
REMARK    6  A    between atoms: C32_38  and  C33_39 
REMARK    7  A    between atoms: C33_39  and  O7_40 
REMARK    8  A    between atoms: C34_41  and  O8_42 
REMARK    9  A    between atoms: C35_43  and  O9_44 
REMARK   10  A    between atoms: C36_45  and  O10_46 
ROOT
HETATM    1  C1  UNL     1      -4.171  53.927 -10.660  1.00  0.00     0.043 C 
HETATM    2  C2  UNL     1      -2.875  53.212 -10.942  1.00  0.00    -0.081 C 
HETATM    3  C3  UNL     1      -1.649  53.670 -10.584  1.00  0.00    -0.072 C 
HETATM    4  C4  UNL     1      -1.473  54.999  -9.886  1.00  0.00     0.044 C 
HETATM    5  C5  UNL     1      -0.392  52.891 -11.057  1.00  0.00     0.062 C 
HETATM    6  C6  UNL     1       0.933  53.375 -10.428  1.00  0.00    -0.065 C 
HETATM    7  C7  UNL     1       1.504  54.498 -10.914  1.00  0.00    -0.022 C 
HETATM    8  C8  UNL     1       2.730  55.175 -10.373  1.00  0.00     0.033 C 
HETATM    9  C9  UNL     1       3.172  54.620  -9.001  1.00  0.00     0.007 C 
HETATM   10  C10 UNL     1       4.456  55.328  -8.371  1.00  0.00    -0.035 C 
HETATM   11  C11 UNL     1       5.679  55.295  -9.321  1.00  0.00     0.016 C 
HETATM   12  C12 UNL     1       4.117  56.833  -8.109  1.00  0.00     0.012 C 
HETATM   13  C13 UNL     1       5.089  57.554  -7.167  1.00  0.00     0.034 C 
HETATM   14  C14 UNL     1       5.239  56.803  -5.848  1.00  0.00     0.135 C 
HETATM   15  O1  UNL     1       6.099  57.506  -4.957  1.00  0.00    -0.353 OA
HETATM   16  C15 UNL     1       6.054  56.902  -3.660  1.00  0.00     0.283 C 
HETATM   17  O3  UNL     1       6.501  55.543  -3.699  1.00  0.00    -0.358 OA
HETATM   18  C17 UNL     1       5.724  54.749  -4.602  1.00  0.00     0.183 C 
HETATM   19  C18 UNL     1       5.738  55.351  -6.033  1.00  0.00     0.008 C 
HETATM   20  C19 UNL     1       7.203  55.290  -6.524  1.00  0.00     0.020 C 
HETATM   21  C20 UNL     1       4.722  54.629  -6.981  1.00  0.00     0.007 C 
HETATM   22  C21 UNL     1       4.948  53.119  -7.159  1.00  0.00     0.007 C 
HETATM   23  C22 UNL     1       3.668  52.462  -7.679  1.00  0.00     0.011 C 
HETATM   24  C23 UNL     1       3.134  53.040  -9.024  1.00  0.00    -0.028 C 
HETATM   25  C24 UNL     1       4.056  52.484 -10.152  1.00  0.00     0.016 C 
HETATM   26  C25 UNL     1       1.582  52.573  -9.287  1.00  0.00    -0.012 C 
HETATM   27  C26 UNL     1       0.707  52.777  -8.014  1.00  0.00     0.021 C 
HETATM   28  C27 UNL     1       1.535  51.070  -9.670  1.00  0.00     0.016 C 
HETATM   29  C28 UNL     1       0.134  50.559  -9.982  1.00  0.00     0.022 C 
HETATM   30  C29 UNL     1      -0.564  51.323 -11.133  1.00  0.00     0.059 C 
HETATM   31  C37 UNL     1      -2.063  50.894 -11.095  1.00  0.00     0.025 C 
HETATM   32  C38 UNL     1      -2.997  51.923 -11.709  1.00  0.00     0.035 C 
ENDROOT
BRANCH  30  33
HETATM   33  C30 UNL     1       0.103  50.840 -12.442  1.00  0.00     0.271 C 
HETATM   34  O4  UNL     1       1.030  50.043 -12.508  1.00  0.00    -0.264 OA
BRANCH  33  35
HETATM   35  O5  UNL     1      -0.541  51.315 -13.545  1.00  0.00    -0.286 OA
BRANCH  35  36
HETATM   36  C31 UNL     1      -0.933  50.325 -14.505  1.00  0.00     0.301 C 
HETATM   37  O6  UNL     1       0.207  49.905 -15.264  1.00  0.00    -0.348 OA
HETATM   38  C32 UNL     1       0.696  50.828 -16.238  1.00  0.00     0.179 C 
HETATM   39  C34 UNL     1      -0.408  51.426 -17.130  1.00  0.00     0.180 C 
HETATM   40  C35 UNL     1      -1.760  50.749 -16.877  1.00  0.00     0.183 C 
HETATM   41  C36 UNL     1      -2.104  50.826 -15.388  1.00  0.00     0.205 C 
BRANCH  38  42
HETATM   42  C33 UNL     1       1.602  51.909 -15.620  1.00  0.00     0.198 C 
BRANCH  42  43
HETATM   43  O7  UNL     1       1.396  53.201 -16.175  1.00  0.00    -0.398 OA
HETATM   44  H48 UNL     1       1.077  53.109 -17.091  1.00  0.00     0.209 HD
ENDBRANCH  42  43
ENDBRANCH  38  42
BRANCH  39  45
HETATM   45  O8  UNL     1      -0.017  51.300 -18.509  1.00  0.00    -0.390 OA
HETATM   46  H50 UNL     1      -0.126  50.369 -18.772  1.00  0.00     0.210 HD
ENDBRANCH  39  45
BRANCH  40  47
HETATM   47  O9  UNL     1      -2.770  51.446 -17.623  1.00  0.00    -0.390 OA
HETATM   48  H52 UNL     1      -3.211  50.793 -18.192  1.00  0.00     0.210 HD
ENDBRANCH  40  47
BRANCH  41  49
HETATM   49  O10 UNL     1      -3.283  50.040 -15.131  1.00  0.00    -0.388 OA
HETATM   50  H54 UNL     1      -3.563  50.269 -14.216  1.00  0.00     0.210 HD
ENDBRANCH  41  49
ENDBRANCH  35  36
ENDBRANCH  33  35
ENDBRANCH  30  33
BRANCH  16  51
HETATM   51  C16 UNL     1       6.988  57.676  -2.709  1.00  0.00     0.224 C 
BRANCH  51  52
HETATM   52  O2  UNL     1       6.289  58.148  -1.550  1.00  0.00    -0.396 OA
HETATM   53  H23 UNL     1       5.382  58.343  -1.860  1.00  0.00     0.209 HD
ENDBRANCH  51  52
ENDBRANCH  16  51
TORSDOF 10
ENDMDL
