MODEL 1
REMARK minimizedAffinity -9.96993732
REMARK  4 active torsions:
REMARK  status: ('A' for Active; 'I' for Inactive)
REMARK    1  A    between atoms: C4_4  and  C5_5 
REMARK    2  A    between atoms: C5_5  and  C6_6 
REMARK    3  A    between atoms: C6_6  and  C7_7 
REMARK    4  A    between atoms: C7_7  and  C9_9 
ROOT
HETATM    1  C9  UNL     1      -1.459  49.538 -18.968  1.00  0.00    -0.002 C 
HETATM    2  C10 UNL     1      -2.899  49.064 -18.603  1.00  0.00     0.007 C 
HETATM    3  C11 UNL     1      -3.633  48.789 -19.915  1.00  0.00     0.015 C 
HETATM    4  C12 UNL     1      -2.998  49.783 -20.901  1.00  0.00    -0.013 C 
HETATM    5  C13 UNL     1      -3.599  51.186 -20.594  1.00  0.00     0.021 C 
HETATM    6  C14 UNL     1      -3.217  49.532 -22.383  1.00  0.00    -0.070 C 
HETATM    7  C15 UNL     1      -4.212  48.781 -22.881  1.00  0.00    -0.022 C 
HETATM    8  C16 UNL     1      -4.337  48.506 -24.345  1.00  0.00     0.034 C 
HETATM    9  C17 UNL     1      -3.907  49.663 -25.288  1.00  0.00     0.013 C 
HETATM   10  C18 UNL     1      -3.479  49.136 -26.703  1.00  0.00     0.018 C 
HETATM   11  C19 UNL     1      -2.255  48.202 -26.690  1.00  0.00     0.023 C 
HETATM   12  C20 UNL     1      -4.650  48.354 -27.351  1.00  0.00     0.023 C 
HETATM   13  C21 UNL     1      -3.175  50.342 -27.603  1.00  0.00     0.135 C 
HETATM   14  O1  UNL     1      -3.520  50.392 -28.792  1.00  0.00    -0.297 OA
HETATM   15  C22 UNL     1      -2.414  51.511 -27.021  1.00  0.00     0.080 C 
HETATM   16  C23 UNL     1      -1.873  51.247 -25.629  1.00  0.00     0.017 C 
HETATM   17  C24 UNL     1      -2.933  50.727 -24.624  1.00  0.00    -0.031 C 
HETATM   18  C25 UNL     1      -3.812  51.949 -24.212  1.00  0.00     0.016 C 
HETATM   19  C26 UNL     1      -2.206  50.123 -23.357  1.00  0.00     0.024 C 
HETATM   20  C27 UNL     1      -1.157  51.067 -22.706  1.00  0.00     0.010 C 
HETATM   21  C28 UNL     1      -0.701  50.760 -21.259  1.00  0.00     0.011 C 
HETATM   22  C29 UNL     1      -1.478  49.638 -20.549  1.00  0.00    -0.029 C 
HETATM   23  C30 UNL     1      -0.859  48.281 -21.032  1.00  0.00     0.016 C 
ENDROOT
BRANCH   1  24
HETATM   24  C7  UNL     1      -0.950  50.759 -18.134  1.00  0.00    -0.014 C 
HETATM   25  C8  UNL     1      -0.651  51.973 -19.030  1.00  0.00     0.010 C 
BRANCH  24  26
HETATM   26  C6  UNL     1       0.284  50.460 -17.236  1.00  0.00     0.008 C 
BRANCH  26  27
HETATM   27  C5  UNL     1       0.696  51.521 -16.198  1.00  0.00     0.028 C 
BRANCH  27  28
HETATM   28  C4  UNL     1       2.049  52.125 -16.449  1.00  0.00    -0.025 C 
HETATM   29  C2  UNL     1       3.171  52.013 -15.707  1.00  0.00    -0.091 C 
HETATM   30  C1  UNL     1       3.299  51.227 -14.431  1.00  0.00     0.042 C 
HETATM   31  C3  UNL     1       4.444  52.699 -16.140  1.00  0.00     0.042 C 
ENDBRANCH  27  28
ENDBRANCH  26  27
ENDBRANCH  24  26
ENDBRANCH   1  24
TORSDOF 4
ENDMDL
