MODEL 1
REMARK minimizedAffinity -9.52186394
REMARK CNNscore 0.355546951
REMARK CNNaffinity 6.90849304
REMARK  7 active torsions:
REMARK  status: ('A' for Active; 'I' for Inactive)
REMARK    1  A    between atoms: C6_7  and  O2_8 
REMARK    2  A    between atoms: C11_15  and  C13_17 
REMARK    3  A    between atoms: C26_34  and  C27_35 
REMARK    4  A    between atoms: C27_35  and  C28_36 
REMARK    5  A    between atoms: C32_40  and  C33_41 
REMARK    6  A    between atoms: C33_41  and  N2_42 
REMARK    7  A    between atoms: C33_41  and  N3_43 
ROOT
HETATM    1  C1  UNL     1       3.941  60.340  -2.542  1.00  0.00     0.077 C 
HETATM    2  C2  UNL     1       3.121  59.406  -3.377  1.00  0.00     0.053 A 
HETATM    3  C3  UNL     1       1.882  59.030  -3.014  1.00  0.00     0.088 A 
HETATM    4  C4  UNL     1       1.121  58.124  -3.884  1.00  0.00     0.190 A 
HETATM    5  O1  UNL     1      -0.003  57.739  -3.580  1.00  0.00    -0.287 OA
HETATM    6  C5  UNL     1       1.762  57.712  -5.141  1.00  0.00     0.082 A 
HETATM    7  C6  UNL     1       1.103  56.885  -6.069  1.00  0.00     0.092 A 
HETATM    8  C7  UNL     1       1.702  56.574  -7.298  1.00  0.00     0.016 A 
HETATM    9  C8  UNL     1       3.036  56.986  -7.502  1.00  0.00     0.082 A 
HETATM   10  C9  UNL     1       3.695  57.802  -6.578  1.00  0.00     0.075 A 
HETATM   11  C10 UNL     1       3.050  58.175  -5.404  1.00  0.00     0.095 A 
HETATM   12  O3  UNL     1       3.743  58.995  -4.545  1.00  0.00    -0.314 OA
HETATM   13  O4  UNL     1       3.792  56.622  -8.587  1.00  0.00    -0.337 OA
HETATM   14  C11 UNL     1       3.404  55.450  -9.350  1.00  0.00     0.095 C 
HETATM   15  C12 UNL     1       3.175  55.948 -10.799  1.00  0.00     0.050 C 
HETATM   16  C18 UNL     1       2.106  54.753  -8.812  1.00  0.00     0.175 C 
HETATM   17  O5  UNL     1       1.608  53.813  -9.768  1.00  0.00    -0.310 OA
HETATM   18  C19 UNL     1       0.990  52.717  -9.249  1.00  0.00     0.297 C 
HETATM   19  O6  UNL     1       1.165  52.258  -8.134  1.00  0.00    -0.262 OA
HETATM   20  C20 UNL     1      -0.033  52.208 -10.197  1.00  0.00     0.175 A 
HETATM   21  C21 UNL     1      -1.262  53.056 -10.467  1.00  0.00     0.051 C 
HETATM   22  C22 UNL     1      -0.960  54.506 -10.861  1.00  0.00     0.004 C 
HETATM   23  C23 UNL     1      -1.202  55.520  -9.741  1.00  0.00     0.001 C 
HETATM   24  C24 UNL     1      -0.420  55.417  -8.413  1.00  0.00     0.012 C 
HETATM   25  C25 UNL     1       1.065  55.851  -8.480  1.00  0.00     0.057 C 
HETATM   26  O7  UNL     1      -0.430  50.838  -9.974  1.00  0.00    -0.358 OA
HETATM   27  C26 UNL     1       0.329  51.083 -11.161  1.00  0.00     0.172 A 
ENDROOT
BRANCH  27  28
HETATM   28  C27 UNL     1       1.648  50.360 -11.165  1.00  0.00     0.074 C 
BRANCH  28  29
HETATM   29  C28 UNL     1       2.367  50.582 -12.482  1.00  0.00    -0.055 A 
HETATM   30  C29 UNL     1       3.642  50.044 -12.695  1.00  0.00     0.007 A 
HETATM   31  C30 UNL     1       4.300  50.276 -13.904  1.00  0.00     0.001 A 
HETATM   32  C31 UNL     1       3.703  51.045 -14.909  1.00  0.00     0.011 A 
HETATM   33  C32 UNL     1       2.417  51.582 -14.738  1.00  0.00     0.004 A 
HETATM   34  C34 UNL     1       1.758  51.318 -13.519  1.00  0.00     0.018 A 
BRANCH  33  35
HETATM   35  C33 UNL     1       1.710  52.434 -15.778  1.00  0.00     0.479 C 
BRANCH  35  36
HETATM   36  N2  UNL     1       2.646  53.241 -16.514  1.00  0.00     0.116 N 
HETATM   37  H37 UNL     1       2.948  54.006 -15.911  1.00  0.00     0.316 HD
HETATM   38  H38 UNL     1       2.114  53.669 -17.272  1.00  0.00     0.316 HD
ENDBRANCH  35  36
BRANCH  35  39
HETATM   39  N3  UNL     1       1.062  51.738 -16.856  1.00  0.00     0.116 N 
HETATM   40  H39 UNL     1       1.794  51.253 -17.373  1.00  0.00     0.316 HD
HETATM   41  H40 UNL     1       0.443  51.028 -16.476  1.00  0.00     0.316 HD
ENDBRANCH  35  39
ENDBRANCH  33  35
ENDBRANCH  28  29
ENDBRANCH  27  28
BRANCH  14  42
HETATM   42  C13 UNL     1       4.634  54.467  -9.355  1.00  0.00     0.026 C 
HETATM   43  C14 UNL     1       6.007  55.188  -9.460  1.00  0.00     0.037 C 
HETATM   44  C15 UNL     1       6.772  55.212  -8.141  1.00  0.00     0.270 C 
HETATM   45  N1  UNL     1       7.074  53.867  -7.664  1.00  0.00     0.083 N 
HETATM   46  C16 UNL     1       6.034  52.887  -7.955  1.00  0.00     0.270 C 
HETATM   47  H15 UNL     1       7.254  53.910  -6.660  1.00  0.00     0.315 HD
HETATM   48  C17 UNL     1       4.654  53.503  -8.150  1.00  0.00     0.037 C 
ENDBRANCH  14  42
BRANCH   7  49
HETATM   49  O2  UNL     1      -0.099  56.326  -5.756  1.00  0.00    -0.359 OA
HETATM   50  H5  UNL     1      -0.398  56.640  -4.872  1.00  0.00     0.217 HD
ENDBRANCH   7  49
TORSDOF 7
ENDMDL
