MODEL 1
REMARK minimizedAffinity -8.48905754
REMARK CNNscore 0.730208457
REMARK CNNaffinity 6.64178324
REMARK  11 active torsions:
REMARK  status: ('A' for Active; 'I' for Inactive)
REMARK    1  A    between atoms: C2_2  and  O2_4 
REMARK    2  A    between atoms: O2_4  and  C3_5 
REMARK    3  A    between atoms: C4_6  and  O3_7 
REMARK    4  A    between atoms: O3_7  and  C5_8 
REMARK    5  A    between atoms: C15_18  and  C16_19 
REMARK    6  A    between atoms: C20_23  and  C21_24 
REMARK    7  A    between atoms: C21_24  and  O4_27 
REMARK    8  A    between atoms: C24_29  and  O6_30 
REMARK    9  A    between atoms: C30_36  and  O7_37 
REMARK   10  A    between atoms: C36_44  and  O9_45 
REMARK   11  A    between atoms: C37_46  and  O10_47 
ROOT
HETATM    1  C5  UNL     1       7.623  56.751  -6.088  1.00  0.00     0.133 C 
HETATM    2  C6  UNL     1       7.915  55.410  -6.767  1.00  0.00     0.034 C 
HETATM    3  C7  UNL     1       6.997  55.168  -7.956  1.00  0.00     0.013 C 
HETATM    4  C8  UNL     1       5.536  55.260  -7.535  1.00  0.00    -0.025 A 
HETATM    5  C9  UNL     1       4.921  53.998  -6.989  1.00  0.00     0.021 A 
HETATM    6  C10 UNL     1       4.436  54.506  -8.338  1.00  0.00    -0.027 A 
HETATM    7  C11 UNL     1       4.879  53.721  -9.579  1.00  0.00     0.011 C 
HETATM    8  C12 UNL     1       3.822  52.913 -10.354  1.00  0.00     0.011 C 
HETATM    9  C13 UNL     1       2.383  53.116  -9.878  1.00  0.00    -0.028 C 
HETATM   10  C14 UNL     1       2.164  52.212  -8.636  1.00  0.00     0.016 C 
HETATM   11  C15 UNL     1       1.259  52.853 -10.936  1.00  0.00     0.057 C 
HETATM   12  C24 UNL     1       0.064  53.708 -10.409  1.00  0.00     0.126 C 
HETATM   13  C25 UNL     1       0.652  54.733  -9.416  1.00  0.00     0.042 C 
HETATM   14  C26 UNL     1       2.184  54.653  -9.591  1.00  0.00    -0.029 C 
HETATM   15  C27 UNL     1       2.551  55.590 -10.786  1.00  0.00     0.016 C 
HETATM   16  C28 UNL     1       2.992  55.057  -8.327  1.00  0.00     0.006 C 
HETATM   17  C29 UNL     1       2.967  56.559  -8.038  1.00  0.00     0.038 C 
HETATM   18  C30 UNL     1       3.706  56.895  -6.742  1.00  0.00     0.124 C 
HETATM   19  C31 UNL     1       5.220  56.639  -6.912  1.00  0.00     0.034 C 
HETATM   20  C32 UNL     1       6.127  56.906  -5.647  1.00  0.00    -0.015 C 
HETATM   21  C33 UNL     1       5.951  58.349  -5.107  1.00  0.00     0.018 C 
HETATM   22  C34 UNL     1       5.792  55.962  -4.471  1.00  0.00     0.018 C 
ENDROOT
BRANCH   1  23
HETATM   23  O3  UNL     1       8.479  56.853  -4.942  1.00  0.00    -0.352 OA
BRANCH  23  24
HETATM   24  C4  UNL     1       9.869  56.916  -5.277  1.00  0.00     0.292 C 
HETATM   25  C3  UNL     1      10.480  58.153  -4.575  1.00  0.00     0.218 C 
HETATM   26  C37 UNL     1      11.946  57.870  -4.258  1.00  0.00     0.183 C 
HETATM   27  C36 UNL     1      12.053  56.665  -3.309  1.00  0.00     0.173 C 
HETATM   28  C35 UNL     1      10.947  55.637  -3.580  1.00  0.00     0.205 C 
HETATM   29  O8  UNL     1      10.533  55.687  -4.947  1.00  0.00    -0.356 OA
BRANCH  25  30
HETATM   30  O2  UNL     1      10.395  59.276  -5.487  1.00  0.00    -0.309 OA
BRANCH  30  31
HETATM   31  C2  UNL     1       9.582  60.299  -5.119  1.00  0.00     0.255 C 
HETATM   32  C1  UNL     1       9.697  61.422  -6.107  1.00  0.00     0.126 C 
HETATM   33  O1  UNL     1       8.826  60.314  -4.157  1.00  0.00    -0.266 OA
ENDBRANCH  30  31
ENDBRANCH  25  30
BRANCH  26  34
HETATM   34  O10 UNL     1      12.572  59.006  -3.644  1.00  0.00    -0.390 OA
HETATM   35  H60 UNL     1      13.506  58.751  -3.517  1.00  0.00     0.210 HD
ENDBRANCH  26  34
BRANCH  27  36
HETATM   36  O9  UNL     1      13.361  56.098  -3.492  1.00  0.00    -0.391 OA
HETATM   37  H58 UNL     1      13.426  55.316  -2.915  1.00  0.00     0.210 HD
ENDBRANCH  27  36
ENDBRANCH  23  24
ENDBRANCH   1  23
BRANCH  18  38
HETATM   38  O7  UNL     1       3.464  58.283  -6.490  1.00  0.00    -0.395 OA
HETATM   39  H47 UNL     1       2.510  58.387  -6.327  1.00  0.00     0.210 HD
ENDBRANCH  18  38
BRANCH  11  40
HETATM   40  C16 UNL     1       0.937  51.444 -11.509  1.00  0.00     0.065 C 
HETATM   41  C17 UNL     1      -0.021  50.545 -10.713  1.00  0.00     0.046 C 
HETATM   42  C18 UNL     1       2.211  50.660 -11.853  1.00  0.00     0.041 C 
HETATM   43  C19 UNL     1       1.828  49.871 -13.083  1.00  0.00     0.038 C 
HETATM   44  C20 UNL     1       0.850  50.790 -13.804  1.00  0.00     0.156 C 
HETATM   45  O5  UNL     1       0.301  51.670 -12.797  1.00  0.00    -0.372 OA
BRANCH  44  46
HETATM   46  C21 UNL     1       1.451  51.634 -14.966  1.00  0.00     0.076 C 
HETATM   47  C22 UNL     1       1.000  51.086 -16.329  1.00  0.00     0.048 C 
HETATM   48  C23 UNL     1       2.983  51.645 -14.900  1.00  0.00     0.048 C 
BRANCH  46  49
HETATM   49  O4  UNL     1       1.014  52.997 -14.862  1.00  0.00    -0.388 OA
HETATM   50  H35 UNL     1       1.082  53.399 -15.743  1.00  0.00     0.210 HD
ENDBRANCH  46  49
ENDBRANCH  44  46
ENDBRANCH  11  40
BRANCH  12  51
HETATM   51  O6  UNL     1      -0.935  52.969  -9.728  1.00  0.00    -0.395 OA
HETATM   52  H37 UNL     1      -1.710  53.548  -9.627  1.00  0.00     0.210 HD
ENDBRANCH  12  51
TORSDOF 11
ENDMDL
