MODEL 1
REMARK minimizedAffinity -9.43788624
REMARK  8 active torsions:
REMARK  status: ('A' for Active; 'I' for Inactive)
REMARK    1  A    between atoms: C2_2  and  C3_3 
REMARK    2  A    between atoms: C3_3  and  C5_5 
REMARK    3  A    between atoms: C6_6  and  C7_7 
REMARK    4  A    between atoms: C7_7  and  O1_9 
REMARK    5  A    between atoms: C7_7  and  C9_10 
REMARK    6  A    between atoms: C10_11  and  O2_12 
REMARK    7  A    between atoms: C26_29  and  C27_30 
REMARK    8  A    between atoms: C27_30  and  O4_31 
ROOT
HETATM    1  C9  UNL     1      -1.409   7.283  13.710  1.00  0.00     0.063 C 
HETATM    2  C10 UNL     1      -0.671   8.621  13.474  1.00  0.00     0.126 C 
HETATM    3  C11 UNL     1      -0.684   8.834  11.966  1.00  0.00     0.038 C 
HETATM    4  C12 UNL     1      -0.743   7.433  11.332  1.00  0.00     0.003 C 
HETATM    5  C13 UNL     1       0.381   7.116  10.332  1.00  0.00    -0.004 C 
HETATM    6  C14 UNL     1       0.312   7.990   9.059  1.00  0.00     0.010 C 
HETATM    7  C15 UNL     1       1.644   8.055   8.296  1.00  0.00     0.035 C 
HETATM    8  C16 UNL     1       2.455   6.804   8.517  1.00  0.00    -0.068 C 
HETATM    9  C17 UNL     1       2.727   5.974   7.495  1.00  0.00     0.053 C 
HETATM   10  C18 UNL     1       3.442   4.694   7.705  1.00  0.00     0.149 C 
HETATM   11  O3  UNL     1       3.769   4.023   6.728  1.00  0.00    -0.293 OA
HETATM   12  C19 UNL     1       3.780   4.272   9.113  1.00  0.00     0.084 C 
HETATM   13  C20 UNL     1       2.902   4.967  10.152  1.00  0.00     0.022 C 
HETATM   14  C21 UNL     1       2.845   6.507   9.973  1.00  0.00    -0.016 C 
HETATM   15  C22 UNL     1       4.236   7.120  10.248  1.00  0.00     0.020 C 
HETATM   16  C23 UNL     1       1.796   7.185  10.943  1.00  0.00     0.002 C 
HETATM   17  C24 UNL     1       1.852   6.725  12.410  1.00  0.00     0.007 C 
HETATM   18  C25 UNL     1       0.654   5.892  12.868  1.00  0.00     0.013 C 
HETATM   19  C26 UNL     1      -0.789   6.418  12.518  1.00  0.00    -0.006 C 
ENDROOT
BRANCH   1  20
HETATM   20  C7  UNL     1      -2.984   7.395  13.808  1.00  0.00     0.079 C 
HETATM   21  C8  UNL     1      -3.548   7.543  15.235  1.00  0.00     0.051 C 
BRANCH  20  22
HETATM   22  C6  UNL     1      -3.677   6.194  13.174  1.00  0.00     0.007 C 
HETATM   23  C5  UNL     1      -4.951   5.819  13.398  1.00  0.00    -0.024 C 
BRANCH  23  24
HETATM   24  C3  UNL     1      -5.693   4.649  12.779  1.00  0.00     0.003 C 
HETATM   25  C4  UNL     1      -4.812   3.433  12.467  1.00  0.00     0.014 C 
BRANCH  24  26
HETATM   26  C2  UNL     1      -6.888   4.203  13.647  1.00  0.00     0.003 C 
HETATM   27  C1  UNL     1      -7.564   2.925  13.165  1.00  0.00     0.006 C 
ENDBRANCH  24  26
ENDBRANCH  23  24
ENDBRANCH  20  22
BRANCH  20  28
HETATM   28  O1  UNL     1      -3.428   8.542  13.077  1.00  0.00    -0.386 OA
HETATM   29  H15 UNL     1      -4.374   8.663  13.274  1.00  0.00     0.211 HD
ENDBRANCH  20  28
ENDBRANCH   1  20
BRANCH   2  30
HETATM   30  O2  UNL     1      -1.146   9.748  14.174  1.00  0.00    -0.395 OA
HETATM   31  H18 UNL     1      -0.661  10.527  13.848  1.00  0.00     0.210 HD
ENDBRANCH   2  30
BRANCH  19  32
HETATM   32  C27 UNL     1      -1.609   5.166  12.103  1.00  0.00     0.174 C 
BRANCH  32  33
HETATM   33  O4  UNL     1      -0.958   4.407  11.091  1.00  0.00    -0.400 OA
HETATM   34  H42 UNL     1      -0.072   4.177  11.414  1.00  0.00     0.209 HD
ENDBRANCH  32  33
ENDBRANCH  19  32
TORSDOF 8
ENDMDL
