MODEL 1
REMARK minimizedAffinity -7.94974089
REMARK CNNscore 0.738798559
REMARK CNNaffinity 7.08137083
REMARK  7 active torsions:
REMARK  status: ('A' for Active; 'I' for Inactive)
REMARK    1  A    between atoms: C3_3  and  C4_4 
REMARK    2  A    between atoms: C5_6  and  C6_7 
REMARK    3  A    between atoms: C6_7  and  C7_9 
REMARK    4  A    between atoms: C7_9  and  O3_10 
REMARK    5  A    between atoms: O3_10  and  C8_11 
REMARK    6  A    between atoms: C8_11  and  C9_13 
REMARK    7  A    between atoms: C28_36  and  O7_37 
ROOT
HETATM    1  C4  UNL     1       1.747  52.137  -9.814  1.00  0.00     0.286 C 
HETATM    2  O1  UNL     1       0.361  52.281  -9.544  1.00  0.00    -0.338 OA
HETATM    3  C5  UNL     1      -0.154  53.610  -9.558  1.00  0.00     0.137 C 
HETATM    4  C14 UNL     1      -0.018  54.196 -10.991  1.00  0.00     0.050 C 
HETATM    5  C15 UNL     1       1.359  54.892 -11.005  1.00  0.00     0.043 C 
HETATM    6  C16 UNL     1       1.943  54.578  -9.620  1.00  0.00     0.079 C 
HETATM    7  O5  UNL     1       2.564  53.285  -9.675  1.00  0.00    -0.346 OA
HETATM    8  C17 UNL     1       3.036  55.526  -9.081  1.00  0.00     0.029 C 
HETATM    9  C18 UNL     1       4.234  55.710 -10.042  1.00  0.00     0.012 C 
HETATM   10  C19 UNL     1       5.543  55.114  -9.537  1.00  0.00     0.036 C 
HETATM   11  C20 UNL     1       5.898  55.521  -8.122  1.00  0.00    -0.068 C 
HETATM   12  C21 UNL     1       7.186  55.514  -7.736  1.00  0.00     0.053 C 
HETATM   13  C22 UNL     1       7.581  55.776  -6.332  1.00  0.00     0.149 C 
HETATM   14  O6  UNL     1       8.774  55.886  -6.056  1.00  0.00    -0.293 OA
HETATM   15  C23 UNL     1       6.504  55.918  -5.283  1.00  0.00     0.084 C 
HETATM   16  C24 UNL     1       5.167  55.340  -5.743  1.00  0.00     0.022 C 
HETATM   17  C25 UNL     1       4.744  55.823  -7.155  1.00  0.00    -0.014 C 
HETATM   18  C26 UNL     1       4.516  57.353  -7.116  1.00  0.00     0.020 C 
HETATM   19  C27 UNL     1       3.493  55.023  -7.664  1.00  0.00     0.034 C 
HETATM   20  C28 UNL     1       2.298  54.883  -6.685  1.00  0.00     0.124 C 
HETATM   21  C29 UNL     1       1.123  54.074  -7.286  1.00  0.00     0.048 C 
HETATM   22  C30 UNL     1       0.705  54.565  -8.692  1.00  0.00     0.029 C 
HETATM   23  C31 UNL     1      -0.004  55.948  -8.557  1.00  0.00     0.022 C 
ENDROOT
BRANCH   3  24
HETATM   24  C6  UNL     1      -1.628  53.538  -9.118  1.00  0.00     0.186 C 
HETATM   25  O2  UNL     1      -1.976  52.970  -8.077  1.00  0.00    -0.292 OA
BRANCH  24  26
HETATM   26  C7  UNL     1      -2.659  54.188 -10.043  1.00  0.00     0.260 C 
BRANCH  26  27
HETATM   27  O3  UNL     1      -3.861  53.422 -10.147  1.00  0.00    -0.310 OA
BRANCH  27  28
HETATM   28  C8  UNL     1      -4.045  52.839 -11.357  1.00  0.00     0.295 C 
HETATM   29  O4  UNL     1      -4.227  53.431 -12.410  1.00  0.00    -0.259 OA
BRANCH  28  30
HETATM   30  C9  UNL     1      -4.017  51.365 -11.247  1.00  0.00     0.054 A 
HETATM   31  C10 UNL     1      -4.601  50.747 -10.138  1.00  0.00     0.020 A 
HETATM   32  C11 UNL     1      -4.575  49.358 -10.032  1.00  0.00     0.018 A 
HETATM   33  C12 UNL     1      -3.959  48.633 -11.039  1.00  0.00     0.087 A 
HETATM   34  N1  UNL     1      -3.384  49.197 -12.124  1.00  0.00    -0.374 N 
HETATM   35  C13 UNL     1      -3.430  50.551 -12.206  1.00  0.00     0.105 A 
ATOM     36  H1  UNL     1      -2.936  48.632 -12.846  1.00  0.00     0.164 HD
ENDBRANCH  28  30
ENDBRANCH  27  28
ENDBRANCH  26  27
ENDBRANCH  24  26
ENDBRANCH   3  24
BRANCH   1  37
HETATM   37  C3  UNL     1       1.968  51.513 -11.162  1.00  0.00     0.029 C 
HETATM   38  C2  UNL     1       2.902  51.906 -12.044  1.00  0.00    -0.030 C 
HETATM   39  C1  UNL     1       3.093  51.285 -13.389  1.00  0.00     0.036 C 
ENDBRANCH   1  37
BRANCH  20  40
HETATM   40  O7  UNL     1       1.848  56.159  -6.258  1.00  0.00    -0.395 OA
HETATM   41  H32 UNL     1       1.097  56.024  -5.652  1.00  0.00     0.210 HD
ENDBRANCH  20  40
TORSDOF 7
ENDMDL
