MODEL 1
REMARK minimizedAffinity -7.72834826
REMARK CNNscore 0.385960162
REMARK CNNaffinity 5.93989563
REMARK  5 active torsions:
REMARK  status: ('A' for Active; 'I' for Inactive)
REMARK    1  A    between atoms: C2_2  and  C3_3 
REMARK    2  A    between atoms: C6_6  and  C7_7 
REMARK    3  A    between atoms: C7_7  and  O1_8 
REMARK    4  A    between atoms: C7_7  and  C8_9 
REMARK    5  A    between atoms: C26_32  and  O6_33 
ROOT
HETATM    1  C3  UNL     1     -11.666  45.430 -22.356  1.00  0.00     0.008 C 
HETATM    2  C4  UNL     1     -11.138  44.844 -23.655  1.00  0.00    -0.023 C 
HETATM    3  C5  UNL     1     -11.302  45.334 -24.897  1.00  0.00     0.005 C 
HETATM    4  C6  UNL     1     -10.770  44.689 -26.156  1.00  0.00     0.187 C 
HETATM    5  O2  UNL     1     -10.011  45.717 -26.842  1.00  0.00    -0.308 OA
HETATM    6  C12 UNL     1      -8.665  45.719 -26.652  1.00  0.00     0.276 C 
HETATM    7  O3  UNL     1      -8.023  44.797 -26.158  1.00  0.00    -0.264 OA
HETATM    8  C13 UNL     1      -8.005  47.026 -27.187  1.00  0.00     0.095 C 
HETATM    9  C14 UNL     1      -9.028  48.130 -27.522  1.00  0.00     0.036 C 
HETATM   10  C15 UNL     1      -7.376  46.587 -28.495  1.00  0.00     0.003 C 
HETATM   11  C16 UNL     1      -6.256  46.997 -29.100  1.00  0.00     0.072 C 
HETATM   12  C17 UNL     1      -5.286  48.016 -28.677  1.00  0.00     0.245 C 
HETATM   13  O4  UNL     1      -4.519  48.479 -29.521  1.00  0.00    -0.268 OA
HETATM   14  N1  UNL     1      -5.167  48.387 -27.384  1.00  0.00    -0.320 N 
HETATM   15  C18 UNL     1      -5.839  48.089 -26.227  1.00  0.00     0.098 C 
HETATM   16  C19 UNL     1      -7.047  47.514 -26.102  1.00  0.00     0.045 C 
HETATM   17  C20 UNL     1      -7.604  47.416 -24.710  1.00  0.00     0.194 C 
HETATM   18  O5  UNL     1      -8.809  47.455 -24.505  1.00  0.00    -0.287 OA
HETATM   19  C21 UNL     1      -6.678  47.333 -23.580  1.00  0.00     0.046 A 
HETATM   20  C22 UNL     1      -5.455  47.973 -23.709  1.00  0.00     0.032 A 
HETATM   21  C23 UNL     1      -4.564  48.035 -22.630  1.00  0.00     0.026 A 
HETATM   22  C24 UNL     1      -4.875  47.407 -21.416  1.00  0.00    -0.027 A 
HETATM   23  C25 UNL     1      -3.886  47.424 -20.287  1.00  0.00     0.051 C 
HETATM   24  C26 UNL     1      -6.075  46.693 -21.321  1.00  0.00     0.086 A 
HETATM   25  C27 UNL     1      -6.995  46.688 -22.380  1.00  0.00     0.059 A 
HETATM   26  C28 UNL     1      -8.211  45.873 -22.231  1.00  0.00     0.163 C 
HETATM   27  O7  UNL     1      -8.120  44.689 -22.535  1.00  0.00    -0.292 OA
HETATM   28  C29 UNL     1      -9.417  46.524 -21.579  1.00  0.00     0.084 C 
HETATM   29  C30 UNL     1     -10.553  45.534 -21.284  1.00  0.00     0.016 C 
HETATM   30  C31 UNL     1      -5.084  48.550 -25.007  1.00  0.00     0.210 C 
HETATM   31  O8  UNL     1      -4.137  49.322 -25.108  1.00  0.00    -0.285 OA
HETATM   32  H24 UNL     1      -4.344  48.979 -27.248  1.00  0.00     0.169 HD
ENDROOT
BRANCH   4  33
HETATM   33  C7  UNL     1     -11.915  44.265 -27.119  1.00  0.00     0.174 C 
BRANCH  33  34
HETATM   34  O1  UNL     1     -12.661  45.408 -27.548  1.00  0.00    -0.389 OA
HETATM   35  H11 UNL     1     -12.821  45.939 -26.749  1.00  0.00     0.210 HD
ENDBRANCH  33  34
BRANCH  33  36
HETATM   36  C8  UNL     1     -11.445  43.463 -28.309  1.00  0.00     0.009 C 
HETATM   37  C9  UNL     1     -11.983  42.372 -28.894  1.00  0.00    -0.089 C 
HETATM   38  C10 UNL     1     -11.282  41.693 -30.041  1.00  0.00     0.042 C 
HETATM   39  C11 UNL     1     -13.290  41.743 -28.502  1.00  0.00     0.042 C 
ENDBRANCH  33  36
ENDBRANCH   4  33
BRANCH   1  40
HETATM   40  C2  UNL     1     -12.482  46.734 -22.529  1.00  0.00     0.004 C 
HETATM   41  C1  UNL     1     -13.098  47.264 -21.240  1.00  0.00     0.006 C 
ENDBRANCH   1  40
BRANCH  24  42
HETATM   42  O6  UNL     1      -6.308  45.972 -20.180  1.00  0.00    -0.359 OA
HETATM   43  H29 UNL     1      -6.654  45.097 -20.445  1.00  0.00     0.217 HD
ENDBRANCH  24  42
TORSDOF 5
ENDMDL
