MODEL 1
REMARK minimizedAffinity -6.77012825
REMARK CNNscore 0.208098292
REMARK CNNaffinity 6.65462732
REMARK  10 active torsions:
REMARK  status: ('A' for Active; 'I' for Inactive)
REMARK    1  A    between atoms: C2_2  and  C3_3 
REMARK    2  A    between atoms: C5_5  and  S1_6 
REMARK    3  A    between atoms: C14_18  and  C15_19 
REMARK    4  A    between atoms: C15_19  and  O4_20 
REMARK    5  A    between atoms: C21_26  and  O5_27 
REMARK    6  A    between atoms: C33_40  and  C34_41 
REMARK    7  A    between atoms: C33_40  and  N1_45 
REMARK    8  A    between atoms: C34_41  and  C35_42 
REMARK    9  A    between atoms: C35_42  and  C36_43 
REMARK   10  A    between atoms: C36_43  and  O7_44 
REMARK       I    between atoms: N1_45  and  C37_47 
REMARK       I    between atoms: C37_47  and  N3_49 
ROOT
HETATM    1  C3  UNL     1     -17.506  -1.375  15.606  1.00  0.00     0.019 C 
HETATM    2  C4  UNL     1     -17.579   0.111  15.140  1.00  0.00     0.034 C 
HETATM    3  C5  UNL     1     -16.756   1.269  15.743  1.00  0.00     0.157 C 
HETATM    4  C6  UNL     1     -17.586   2.609  15.649  1.00  0.00     0.121 A 
HETATM    5  C7  UNL     1     -17.038   3.670  16.595  1.00  0.00     0.005 C 
HETATM    6  C8  UNL     1     -17.487   4.936  16.491  1.00  0.00    -0.048 C 
HETATM    7  C9  UNL     1     -18.684   5.181  15.620  1.00  0.00     0.044 C 
HETATM    8  C10 UNL     1     -18.319   4.725  14.201  1.00  0.00     0.019 C 
HETATM    9  C11 UNL     1     -17.312   5.707  13.519  1.00  0.00     0.039 C 
HETATM   10  C12 UNL     1     -16.097   6.150  14.373  1.00  0.00     0.123 C 
HETATM   11  C13 UNL     1     -15.146   7.097  13.606  1.00  0.00     0.039 C 
HETATM   12  C14 UNL     1     -15.639   8.569  13.453  1.00  0.00     0.023 C 
HETATM   13  C16 UNL     1     -14.942   9.556  14.432  1.00  0.00     0.101 C 
HETATM   14  C17 UNL     1     -15.337   9.338  15.829  1.00  0.00    -0.101 C 
HETATM   15  C18 UNL     1     -15.748   8.971  16.896  1.00  0.00    -0.066 C 
HETATM   16  C19 UNL     1     -16.358   8.320  18.020  1.00  0.00     0.029 A 
HETATM   17  C20 UNL     1     -16.510   9.058  19.201  1.00  0.00     0.057 A 
HETATM   18  C21 UNL     1     -17.091   8.465  20.318  1.00  0.00     0.067 A 
HETATM   19  C22 UNL     1     -17.543   7.152  20.279  1.00  0.00     0.037 A 
HETATM   20  C23 UNL     1     -17.406   6.412  19.102  1.00  0.00     0.014 A 
HETATM   21  C24 UNL     1     -16.811   6.974  17.947  1.00  0.00    -0.006 A 
HETATM   22  C25 UNL     1     -16.543   6.090  16.732  1.00  0.00     0.185 C 
HETATM   23  O6  UNL     1     -16.577   6.854  15.521  1.00  0.00    -0.371 OA
HETATM   24  C26 UNL     1     -17.806   3.225  14.187  1.00  0.00     0.115 A 
HETATM   25  C27 UNL     1     -18.752   2.393  13.308  1.00  0.00    -0.035 A 
HETATM   26  C28 UNL     1     -20.090   2.169  13.655  1.00  0.00     0.010 A 
HETATM   27  C29 UNL     1     -20.891   1.286  12.909  1.00  0.00     0.012 A 
HETATM   28  C30 UNL     1     -20.389   0.607  11.781  1.00  0.00    -0.003 A 
HETATM   29  C31 UNL     1     -19.065   0.894  11.400  1.00  0.00     0.012 A 
HETATM   30  C32 UNL     1     -18.265   1.767  12.150  1.00  0.00     0.010 A 
HETATM   31  C33 UNL     1     -21.225  -0.496  11.055  1.00  0.00     0.171 C 
HETATM   32  O8  UNL     1     -20.557  -1.814  11.070  1.00  0.00    -0.316 OA
HETATM   33  C38 UNL     1     -19.918  -2.146  12.236  1.00  0.00     0.072 C 
HETATM   34  C39 UNL     1     -18.555  -2.419  12.129  1.00  0.00     0.037 C 
HETATM   35  C40 UNL     1     -17.763  -2.373  13.272  1.00  0.00     0.010 C 
HETATM   36  C41 UNL     1     -18.344  -2.089  14.519  1.00  0.00    -0.054 C 
HETATM   37  C42 UNL     1     -19.745  -2.084  14.633  1.00  0.00     0.010 C 
HETATM   38  C43 UNL     1     -20.536  -2.109  13.484  1.00  0.00     0.037 C 
HETATM   39 NA1  UNL     1     -18.295   2.791  14.090  1.00  0.00    -0.404 Na
ATOM     40  HA1 UNL     1     -19.005   2.450  13.441  1.00  0.00     0.154 HD
ENDROOT
BRANCH  31  41
HETATM   41  C34 UNL     1     -21.273  -0.156   9.523  1.00  0.00     0.069 C 
BRANCH  41  42
HETATM   42  C35 UNL     1     -21.316   1.325   9.101  1.00  0.00     0.031 C 
BRANCH  42  43
HETATM   43  C36 UNL     1     -21.575   1.597   7.626  1.00  0.00     0.164 C 
BRANCH  43  44
HETATM   44  O7  UNL     1     -22.522   0.664   7.115  1.00  0.00    -0.401 OA
HETATM   45  H42 UNL     1     -22.726   0.952   6.212  1.00  0.00     0.209 HD
ENDBRANCH  43  44
ENDBRANCH  42  43
ENDBRANCH  41  42
ENDBRANCH  31  41
BRANCH  31  46
HETATM   46  N1  UNL     1     -22.625  -0.488  11.543  1.00  0.00    -0.331 N 
HETATM   47  C37 UNL     1     -23.425  -1.462  11.313  1.00  0.00     0.146 C 
HETATM   48  N2  UNL     1     -24.684  -1.407  11.794  1.00  0.00    -0.376 N 
HETATM   49  N3  UNL     1     -23.208  -2.637  10.680  1.00  0.00    -0.274 NA
HETATM   50  H43 UNL     1     -25.403  -1.890  11.284  1.00  0.00     0.158 HD
HETATM   51  H44 UNL     1     -24.931  -0.494  12.163  1.00  0.00     0.158 HD
HETATM   52  H45 UNL     1     -22.258  -2.724  10.328  1.00  0.00     0.127 HD
HETATM   53  H46 UNL     1     -23.876  -2.863   9.954  1.00  0.00     0.127 HD
ATOM     54  H1  UNL     1     -22.960   0.315  12.076  1.00  0.00     0.165 HD
ENDBRANCH  31  46
BRANCH   1  55
HETATM   55  C2  UNL     1     -16.118  -2.002  15.798  1.00  0.00     0.005 C 
HETATM   56  C1  UNL     1     -15.462  -2.367  14.471  1.00  0.00     0.006 C 
ENDBRANCH   1  55
BRANCH   3  57
HETATM   57  S1  UNL     1     -15.094   1.415  14.986  1.00  0.00     0.108 S 
HETATM   58  O1  UNL     1     -15.223   0.800  13.663  1.00  0.00    -0.595 OA
HETATM   59  O2  UNL     1     -14.802   2.850  14.945  1.00  0.00    -0.595 OA
HETATM   60  O3  UNL     1     -14.236   0.685  15.916  1.00  0.00    -0.595 OA
ENDBRANCH   3  57
BRANCH  12  61
HETATM   61  C15 UNL     1     -15.407   9.055  12.011  1.00  0.00     0.169 C 
BRANCH  61  62
HETATM   62  O4  UNL     1     -15.987   8.184  11.046  1.00  0.00    -0.400 OA
HETATM   63  H23 UNL     1     -16.910   8.023  11.290  1.00  0.00     0.209 HD
ENDBRANCH  61  62
ENDBRANCH  12  61
BRANCH  18  64
HETATM   64  O5  UNL     1     -17.201   9.208  21.462  1.00  0.00    -0.361 OA
HETATM   65  H27 UNL     1     -17.538   8.641  22.170  1.00  0.00     0.217 HD
ENDBRANCH  18  64
TORSDOF 10
ENDMDL
