MODEL 1
REMARK minimizedAffinity -8.56582546
REMARK  10 active torsions:
REMARK  status: ('A' for Active; 'I' for Inactive)
REMARK    1  A    between atoms: C14_14  and  C15_15 
REMARK    2  A    between atoms: C15_15  and  C17_17 
REMARK    3  A    between atoms: C17_17  and  C18_18 
REMARK    4  A    between atoms: C18_18  and  C19_19 
REMARK    5  A    between atoms: C20_20  and  C22_22 
REMARK    6  A    between atoms: C22_22  and  O2_24 
REMARK    7  A    between atoms: C27_29  and  C28_30 
REMARK    8  A    between atoms: C28_30  and  C29_31 
REMARK    9  A    between atoms: C29_31  and  C30_32 
REMARK   10  A    between atoms: C30_32  and  O3_33 
ROOT
HETATM    1  C1  UNL     1      -8.289   3.909  12.649  1.00  0.00     0.043 C 
HETATM    2  C2  UNL     1      -8.162   5.371  13.019  1.00  0.00    -0.085 C 
HETATM    3  C3  UNL     1      -9.000   6.251  12.121  1.00  0.00     0.043 C 
HETATM    4  C4  UNL     1      -7.392   5.823  14.047  1.00  0.00    -0.073 C 
HETATM    5  C5  UNL     1      -6.575   4.869  14.890  1.00  0.00     0.035 C 
HETATM    6  C6  UNL     1      -5.465   5.485  15.740  1.00  0.00     0.010 C 
HETATM    7  C7  UNL     1      -4.763   6.737  15.178  1.00  0.00     0.003 C 
HETATM    8  C8  UNL     1      -5.747   7.791  14.493  1.00  0.00    -0.032 C 
HETATM    9  C9  UNL     1      -5.733   9.153  15.245  1.00  0.00     0.016 C 
HETATM   10  C10 UNL     1      -5.292   8.131  13.024  1.00  0.00     0.011 C 
HETATM   11  C11 UNL     1      -3.791   8.360  12.748  1.00  0.00     0.011 C 
HETATM   12  C12 UNL     1      -2.834   7.707  13.755  1.00  0.00    -0.032 C 
HETATM   13  C13 UNL     1      -2.466   8.724  14.877  1.00  0.00     0.016 C 
HETATM   14  C14 UNL     1      -1.507   7.155  13.142  1.00  0.00    -0.002 C 
HETATM   15  C23 UNL     1      -1.053   6.093  14.178  1.00  0.00     0.006 C 
HETATM   16  C24 UNL     1      -2.280   5.803  15.082  1.00  0.00     0.011 C 
HETATM   17  C25 UNL     1      -3.491   6.389  14.312  1.00  0.00    -0.032 C 
HETATM   18  C26 UNL     1      -3.854   5.315  13.234  1.00  0.00     0.016 C 
HETATM   19  C27 UNL     1      -7.258   7.297  14.418  1.00  0.00     0.023 C 
ENDROOT
BRANCH  14  20
HETATM   20  C15 UNL     1      -0.430   8.088  12.515  1.00  0.00    -0.014 C 
HETATM   21  C16 UNL     1      -1.066   8.916  11.381  1.00  0.00     0.010 C 
BRANCH  20  22
HETATM   22  C17 UNL     1       0.946   7.554  12.059  1.00  0.00     0.008 C 
BRANCH  22  23
HETATM   23  C18 UNL     1       0.970   6.468  10.978  1.00  0.00     0.028 C 
BRANCH  23  24
HETATM   24  C19 UNL     1       1.224   7.079   9.626  1.00  0.00    -0.013 C 
HETATM   25  C20 UNL     1       2.150   6.722   8.713  1.00  0.00     0.008 C 
HETATM   26  C21 UNL     1       3.164   5.629   8.863  1.00  0.00     0.055 C 
BRANCH  25  27
HETATM   27  C22 UNL     1       2.162   7.501   7.448  1.00  0.00     0.171 C 
HETATM   28  O1  UNL     1       1.623   7.196   6.399  1.00  0.00    -0.646 OA
BRANCH  27  29
HETATM   29  O2  UNL     1       2.863   8.643   7.555  1.00  0.00    -0.773 OA
HETATM   30  H35 UNL     1       2.779   9.043   6.665  1.00  0.00     0.167 HD
ENDBRANCH  27  29
ENDBRANCH  25  27
ENDBRANCH  23  24
ENDBRANCH  22  23
ENDBRANCH  20  22
ENDBRANCH  14  20
BRANCH  19  31
HETATM   31  C28 UNL     1      -8.264   7.696  15.543  1.00  0.00     0.012 C 
BRANCH  31  32
HETATM   32  C29 UNL     1      -9.374   8.696  15.225  1.00  0.00     0.027 C 
BRANCH  32  33
HETATM   33  C30 UNL     1     -10.691   8.014  14.861  1.00  0.00     0.164 C 
BRANCH  33  34
HETATM   34  O3  UNL     1     -10.674   6.639  15.217  1.00  0.00    -0.401 OA
HETATM   35  H50 UNL     1     -10.119   6.175  14.566  1.00  0.00     0.209 HD
ENDBRANCH  33  34
ENDBRANCH  32  33
ENDBRANCH  31  32
ENDBRANCH  19  31
TORSDOF 10
ENDMDL
