MODEL 1
REMARK minimizedAffinity -9.85673714
REMARK  9 active torsions:
REMARK  status: ('A' for Active; 'I' for Inactive)
REMARK    1  A    between atoms: C3_3  and  O1_4 
REMARK    2  A    between atoms: N1_14  and  O2_16 
REMARK    3  A    between atoms: O2_16  and  C13_17 
REMARK    4  A    between atoms: C13_17  and  C14_18 
REMARK       I    between atoms: C14_18  and  N2_20 
REMARK    5  A    between atoms: N2_20  and  C15_21 
REMARK    6  A    between atoms: C15_21  and  C16_22 
REMARK    7  A    between atoms: C15_21  and  C17_25 
REMARK    8  A    between atoms: C16_22  and  O5_24 
REMARK    9  A    between atoms: C17_25  and  C19_27 
ROOT
HETATM    1  C1  UNL     1      -2.151  50.978 -27.503  1.00  0.00     0.015 C 
HETATM    2  C2  UNL     1      -1.379  51.317 -26.646  1.00  0.00    -0.078 C 
HETATM    3  C3  UNL     1      -0.422  51.721 -25.606  1.00  0.00     0.128 C 
HETATM    4  C4  UNL     1       0.099  53.165 -25.809  1.00  0.00     0.052 C 
HETATM    5  C5  UNL     1       0.334  53.745 -24.397  1.00  0.00     0.010 C 
HETATM    6  C6  UNL     1       0.105  52.566 -23.454  1.00  0.00     0.002 C 
HETATM    7  C7  UNL     1      -0.202  52.851 -21.978  1.00  0.00    -0.004 C 
HETATM    8  C8  UNL     1       0.908  53.685 -21.326  1.00  0.00     0.010 C 
HETATM    9  C9  UNL     1       0.614  53.939 -19.853  1.00  0.00     0.035 C 
HETATM   10  C10 UNL     1       0.381  52.655 -19.090  1.00  0.00    -0.069 C 
HETATM   11  C11 UNL     1       1.045  52.438 -17.941  1.00  0.00     0.030 C 
HETATM   12  C12 UNL     1       0.769  51.258 -17.083  1.00  0.00     0.032 C 
HETATM   13  N1  UNL     1       1.493  51.103 -16.011  1.00  0.00    -0.271 N 
ATOM     14  H1  UNL     1       2.261  51.719 -15.745  1.00  0.00     0.194 HD
HETATM   15  C21 UNL     1      -0.379  50.356 -17.481  1.00  0.00     0.060 C 
HETATM   16  C22 UNL     1      -0.503  50.288 -18.996  1.00  0.00     0.020 C 
HETATM   17  C23 UNL     1      -0.641  51.677 -19.683  1.00  0.00    -0.016 C 
HETATM   18  C24 UNL     1      -2.056  52.234 -19.412  1.00  0.00     0.020 C 
HETATM   19  C25 UNL     1      -0.363  51.494 -21.225  1.00  0.00     0.002 C 
HETATM   20  C26 UNL     1      -1.370  50.552 -21.939  1.00  0.00     0.007 C 
HETATM   21  C27 UNL     1      -1.093  50.388 -23.444  1.00  0.00     0.014 C 
HETATM   22  C28 UNL     1      -1.000  51.747 -24.161  1.00  0.00     0.003 C 
HETATM   23  C29 UNL     1      -2.390  52.444 -24.133  1.00  0.00     0.020 C 
ENDROOT
BRANCH   3  24
HETATM   24  O1  UNL     1       0.701  50.839 -25.670  1.00  0.00    -0.377 OA
HETATM   25  H2  UNL     1       0.963  50.783 -26.605  1.00  0.00     0.211 HD
ENDBRANCH   3  24
BRANCH  13  26
HETATM   26  O2  UNL     1       1.089  49.986 -15.268  1.00  0.00    -0.271 OA
BRANCH  26  27
HETATM   27  C13 UNL     1       0.870  50.386 -13.918  1.00  0.00     0.303 C 
BRANCH  27  28
HETATM   28  C14 UNL     1      -0.617  50.349 -13.568  1.00  0.00     0.244 C 
HETATM   29  O3  UNL     1      -1.243  49.294 -13.519  1.00  0.00    -0.271 OA
HETATM   30  N2  UNL     1      -1.171  51.586 -13.308  1.00  0.00    -0.344 N 
HETATM   31  H16 UNL     1      -0.508  52.348 -13.220  1.00  0.00     0.163 HD
BRANCH  30  32
HETATM   32  C15 UNL     1      -2.527  51.796 -12.791  1.00  0.00     0.186 C 
BRANCH  32  33
HETATM   33  C16 UNL     1      -3.416  52.260 -13.961  1.00  0.00     0.163 C 
HETATM   34  O4  UNL     1      -3.694  51.657 -14.984  1.00  0.00    -0.648 OA
BRANCH  33  35
HETATM   35  O5  UNL     1      -3.964  53.478 -13.744  1.00  0.00    -0.775 OA
HETATM   36  H18 UNL     1      -4.491  53.635 -14.556  1.00  0.00     0.167 HD
ENDBRANCH  33  35
ENDBRANCH  32  33
BRANCH  32  37
HETATM   37  C17 UNL     1      -2.623  52.665 -11.507  1.00  0.00     0.014 C 
HETATM   38  C18 UNL     1      -3.972  53.397 -11.405  1.00  0.00     0.012 C 
BRANCH  37  39
HETATM   39  C19 UNL     1      -2.447  51.835 -10.210  1.00  0.00     0.002 C 
HETATM   40  C20 UNL     1      -3.615  50.929  -9.849  1.00  0.00     0.005 C 
ENDBRANCH  37  39
ENDBRANCH  32  37
ENDBRANCH  30  32
ENDBRANCH  27  28
ENDBRANCH  26  27
ENDBRANCH  13  26
TORSDOF 9
ENDMDL
