MODEL 1
REMARK minimizedAffinity -10.4288979
REMARK CNNscore 0.571077228
REMARK CNNaffinity 6.98382235
REMARK  8 active torsions:
REMARK  status: ('A' for Active; 'I' for Inactive)
REMARK    1  A    between atoms: C2_2  and  C30_34 
REMARK    2  A    between atoms: C3_3  and  C4_4 
REMARK    3  A    between atoms: C4_4  and  O1_5 
REMARK    4  A    between atoms: C4_4  and  C5_6 
REMARK    5  A    between atoms: C5_6  and  C6_7 
REMARK    6  A    between atoms: C6_7  and  C8_9 
REMARK    7  A    between atoms: C10_11  and  O2_12 
REMARK    8  A    between atoms: C30_34  and  O6_36 
ROOT
HETATM    1  C8  UNL     1      -1.087  49.289 -19.329  1.00  0.00     0.001 C 
HETATM    2  C9  UNL     1      -2.335  48.475 -18.870  1.00  0.00     0.038 C 
HETATM    3  C10 UNL     1      -3.311  48.409 -20.062  1.00  0.00     0.131 C 
HETATM    4  C11 UNL     1      -2.459  48.841 -21.283  1.00  0.00     0.014 C 
HETATM    5  C12 UNL     1      -1.646  47.607 -21.788  1.00  0.00     0.023 C 
HETATM    6  C13 UNL     1      -3.146  49.388 -22.529  1.00  0.00    -0.058 C 
HETATM    7  C14 UNL     1      -2.536  50.260 -23.372  1.00  0.00    -0.000 C 
HETATM    8  C15 UNL     1      -1.153  50.766 -22.997  1.00  0.00     0.157 C 
HETATM    9  O3  UNL     1      -0.495  51.469 -23.763  1.00  0.00    -0.293 OA
HETATM   10  C16 UNL     1      -0.542  50.408 -21.645  1.00  0.00     0.094 C 
HETATM   11  C17 UNL     1      -1.601  49.986 -20.628  1.00  0.00    -0.019 C 
HETATM   12  C18 UNL     1      -2.438  51.248 -20.238  1.00  0.00     0.017 C 
HETATM   13  C19 UNL     1      -3.275  50.809 -24.614  1.00  0.00    -0.008 C 
HETATM   14  C20 UNL     1      -4.139  51.993 -24.080  1.00  0.00     0.021 C 
HETATM   15  C21 UNL     1      -2.353  51.411 -25.716  1.00  0.00     0.022 C 
HETATM   16  C22 UNL     1      -3.041  51.576 -27.060  1.00  0.00     0.080 C 
HETATM   17  C23 UNL     1      -3.409  50.229 -27.620  1.00  0.00     0.135 C 
HETATM   18  O4  UNL     1      -3.442  50.058 -28.840  1.00  0.00    -0.297 OA
HETATM   19  C24 UNL     1      -3.752  49.109 -26.626  1.00  0.00     0.018 C 
HETATM   20  C25 UNL     1      -2.514  48.206 -26.479  1.00  0.00     0.023 C 
HETATM   21  C26 UNL     1      -4.885  48.275 -27.273  1.00  0.00     0.023 C 
HETATM   22  C27 UNL     1      -4.249  49.733 -25.266  1.00  0.00     0.014 C 
HETATM   23  C28 UNL     1      -4.730  48.626 -24.299  1.00  0.00     0.011 C 
HETATM   24  C29 UNL     1      -4.542  48.909 -22.821  1.00  0.00     0.036 C 
ENDROOT
BRANCH   1  25
HETATM   25  C6  UNL     1      -0.489  50.139 -18.165  1.00  0.00    -0.011 C 
HETATM   26  C7  UNL     1      -1.575  50.752 -17.274  1.00  0.00     0.010 C 
BRANCH  25  27
HETATM   27  C5  UNL     1       0.419  51.263 -18.738  1.00  0.00     0.040 C 
BRANCH  27  28
HETATM   28  C4  UNL     1       0.608  52.510 -17.856  1.00  0.00     0.142 C 
BRANCH  28  29
HETATM   29  C3  UNL     1       1.980  52.637 -17.252  1.00  0.00     0.018 C 
HETATM   30  C2  UNL     1       2.415  52.311 -16.018  1.00  0.00     0.010 C 
HETATM   31  C1  UNL     1       3.855  52.396 -15.614  1.00  0.00     0.055 C 
BRANCH  30  32
HETATM   32  C30 UNL     1       1.521  51.821 -14.951  1.00  0.00     0.171 C 
HETATM   33  O5  UNL     1       1.466  50.676 -14.539  1.00  0.00    -0.646 OA
BRANCH  32  34
HETATM   34  O6  UNL     1       0.859  52.822 -14.344  1.00  0.00    -0.773 OA
HETATM   35  H44 UNL     1       0.310  52.343 -13.689  1.00  0.00     0.167 HD
ENDBRANCH  32  34
ENDBRANCH  30  32
ENDBRANCH  28  29
BRANCH  28  36
HETATM   36  O1  UNL     1       0.306  53.676 -18.614  1.00  0.00    -0.392 OA
HETATM   37  H6  UNL     1      -0.606  53.585 -18.938  1.00  0.00     0.210 HD
ENDBRANCH  28  36
ENDBRANCH  27  28
ENDBRANCH  25  27
ENDBRANCH   1  25
BRANCH   3  38
HETATM   38  O2  UNL     1      -3.847  47.099 -20.173  1.00  0.00    -0.394 OA
HETATM   39  H17 UNL     1      -4.302  46.896 -19.336  1.00  0.00     0.210 HD
ENDBRANCH   3  38
TORSDOF 8
ENDMDL
