MODEL 1
REMARK minimizedAffinity -10.385911
REMARK CNNscore 0.575928867
REMARK CNNaffinity 6.6598525
REMARK  12 active torsions:
REMARK  status: ('A' for Active; 'I' for Inactive)
REMARK    1  A    between atoms: C19_21  and  O3_22 
REMARK    2  A    between atoms: C19_21  and  C20_23 
REMARK    3  A    between atoms: C20_23  and  C21_25 
REMARK    4  A    between atoms: C21_25  and  O5_26 
REMARK    5  A    between atoms: O5_26  and  C22_27 
REMARK    6  A    between atoms: C22_27  and  C23_29 
REMARK    7  A    between atoms: C23_29  and  C24_30 
REMARK    8  A    between atoms: C24_30  and  C25_31 
REMARK       I    between atoms: C25_31  and  N1_33 
REMARK    9  A    between atoms: N1_33  and  C26_34 
REMARK   10  A    between atoms: C26_34  and  C27_35 
REMARK   11  A    between atoms: C30_38  and  C31_39 
REMARK   12  A    between atoms: C31_39  and  O9_41 
ROOT
HETATM    1  C1  UNL     1      -6.218   5.411  15.191  1.00  0.00     0.021 C 
HETATM    2  C2  UNL     1      -5.986   5.647  13.678  1.00  0.00    -0.009 C 
HETATM    3  C3  UNL     1      -7.319   6.054  12.993  1.00  0.00     0.022 C 
HETATM    4  C4  UNL     1      -8.400   4.976  13.090  1.00  0.00     0.084 C 
HETATM    5  C5  UNL     1      -7.883   3.600  12.753  1.00  0.00     0.149 C 
HETATM    6  O1  UNL     1      -8.637   2.645  12.591  1.00  0.00    -0.293 OA
HETATM    7  C6  UNL     1      -6.420   3.391  12.628  1.00  0.00     0.053 C 
HETATM    8  C7  UNL     1      -5.540   4.328  13.024  1.00  0.00    -0.067 C 
HETATM    9  C8  UNL     1      -4.068   4.141  12.727  1.00  0.00     0.035 C 
HETATM   10  C9  UNL     1      -3.143   4.806  13.741  1.00  0.00     0.010 C 
HETATM   11  C10 UNL     1      -3.510   6.265  14.070  1.00  0.00     0.003 C 
HETATM   12  C11 UNL     1      -4.864   6.702  13.428  1.00  0.00     0.072 C 
HETATM   13  C12 UNL     1      -5.158   8.148  13.852  1.00  0.00     0.133 C 
HETATM   14  O2  UNL     1      -6.196   8.502  14.406  1.00  0.00    -0.297 OA
HETATM   15  C13 UNL     1      -4.071   9.168  13.525  1.00  0.00     0.091 C 
HETATM   16  C14 UNL     1      -2.756   8.729  14.188  1.00  0.00     0.005 C 
HETATM   17  C15 UNL     1      -2.918   8.812  15.731  1.00  0.00     0.019 C 
HETATM   18  C16 UNL     1      -2.433   7.292  13.675  1.00  0.00     0.002 C 
HETATM   19  C17 UNL     1      -1.005   7.062  14.150  1.00  0.00     0.009 C 
HETATM   20  C18 UNL     1      -0.338   8.445  14.057  1.00  0.00     0.047 C 
HETATM   21  C19 UNL     1      -1.464   9.476  13.738  1.00  0.00     0.128 C 
ENDROOT
BRANCH  21  22
HETATM   22  O3  UNL     1      -1.485   9.648  12.320  1.00  0.00    -0.381 OA
HETATM   23  H25 UNL     1      -0.578   9.889  12.043  1.00  0.00     0.211 HD
ENDBRANCH  21  22
BRANCH  21  24
HETATM   24  C20 UNL     1      -1.223  10.831  14.454  1.00  0.00     0.185 C 
HETATM   25  O4  UNL     1      -1.757  11.875  14.062  1.00  0.00    -0.292 OA
BRANCH  24  26
HETATM   26  C21 UNL     1      -0.217  10.881  15.613  1.00  0.00     0.260 C 
BRANCH  26  27
HETATM   27  O5  UNL     1      -0.673  11.012  16.953  1.00  0.00    -0.314 OA
BRANCH  27  28
HETATM   28  C22 UNL     1       0.174  10.515  17.897  1.00  0.00     0.259 C 
HETATM   29  O6  UNL     1       1.215   9.921  17.647  1.00  0.00    -0.265 OA
BRANCH  28  30
HETATM   30  C23 UNL     1      -0.319  10.830  19.282  1.00  0.00     0.120 C 
BRANCH  30  31
HETATM   31  C24 UNL     1       0.681  11.727  20.000  1.00  0.00     0.112 C 
BRANCH  31  32
HETATM   32  C25 UNL     1       1.773  10.929  20.676  1.00  0.00     0.218 C 
HETATM   33  O7  UNL     1       1.592   9.818  21.160  1.00  0.00    -0.274 OA
HETATM   34  N1  UNL     1       2.974  11.602  20.716  1.00  0.00    -0.361 N 
HETATM   35  H32 UNL     1       3.037  12.522  20.293  1.00  0.00     0.162 HD
BRANCH  34  36
HETATM   36  C26 UNL     1       4.139  11.091  21.412  1.00  0.00     0.127 C 
BRANCH  36  37
HETATM   37  C27 UNL     1       5.229  12.158  21.622  1.00  0.00     0.003 C 
HETATM   38  C28 UNL     1       6.277  12.147  20.500  1.00  0.00     0.007 C 
HETATM   39  C29 UNL     1       7.335  13.231  20.707  1.00  0.00     0.015 C 
HETATM   40  C30 UNL     1       8.018  13.131  22.075  1.00  0.00     0.084 C 
HETATM   41  C32 UNL     1       6.993  13.065  23.216  1.00  0.00     0.015 C 
HETATM   42  C33 UNL     1       5.900  12.020  22.998  1.00  0.00     0.007 C 
BRANCH  40  43
HETATM   43  C31 UNL     1       8.984  11.965  22.113  1.00  0.00     0.143 C 
HETATM   44  O8  UNL     1       9.725  11.585  21.223  1.00  0.00    -0.650 OA
BRANCH  43  45
HETATM   45  O9  UNL     1       8.964  11.324  23.298  1.00  0.00    -0.776 OA
HETATM   46  H41 UNL     1       9.621  10.604  23.193  1.00  0.00     0.167 HD
ENDBRANCH  43  45
ENDBRANCH  40  43
ENDBRANCH  36  37
ENDBRANCH  34  36
ENDBRANCH  31  32
ENDBRANCH  30  31
ENDBRANCH  28  30
ENDBRANCH  27  28
ENDBRANCH  26  27
ENDBRANCH  24  26
ENDBRANCH  21  24
TORSDOF 12
ENDMDL
