MODEL 1
REMARK minimizedAffinity -9.40915012
REMARK  5 active torsions:
REMARK  status: ('A' for Active; 'I' for Inactive)
REMARK    1  A    between atoms: C2_2  and  C3_3 
REMARK    2  A    between atoms: C4_5  and  C5_6 
REMARK    3  A    between atoms: C5_6  and  C6_7 
REMARK    4  A    between atoms: C6_7  and  C7_8 
REMARK    5  A    between atoms: C7_8  and  C9_10 
ROOT
HETATM    1  C9  UNL     1      -0.682  50.041 -20.798  1.00  0.00    -0.002 C 
HETATM    2  C10 UNL     1      -1.065  49.343 -19.462  1.00  0.00     0.007 C 
HETATM    3  C11 UNL     1      -2.352  48.536 -19.714  1.00  0.00     0.015 C 
HETATM    4  C12 UNL     1      -2.508  48.496 -21.246  1.00  0.00    -0.005 C 
HETATM    5  C13 UNL     1      -1.612  47.330 -21.768  1.00  0.00     0.021 C 
HETATM    6  C14 UNL     1      -3.875  48.249 -21.868  1.00  0.00    -0.000 C 
HETATM    7  C15 UNL     1      -4.206  48.766 -23.080  1.00  0.00    -0.060 C 
HETATM    8  C16 UNL     1      -3.213  49.661 -23.837  1.00  0.00     0.036 C 
HETATM    9  C17 UNL     1      -1.883  50.017 -23.139  1.00  0.00     0.015 C 
HETATM   10  C18 UNL     1      -2.007  49.948 -21.612  1.00  0.00    -0.028 C 
HETATM   11  C19 UNL     1      -2.982  51.075 -21.140  1.00  0.00     0.016 C 
HETATM   12  C20 UNL     1      -5.580  48.530 -23.766  1.00  0.00    -0.014 C 
HETATM   13  C21 UNL     1      -6.407  49.824 -23.598  1.00  0.00     0.020 C 
HETATM   14  C22 UNL     1      -5.384  48.218 -25.272  1.00  0.00     0.021 C 
HETATM   15  C23 UNL     1      -6.610  47.698 -26.015  1.00  0.00     0.080 C 
HETATM   16  C24 UNL     1      -7.847  47.489 -25.177  1.00  0.00     0.135 C 
HETATM   17  O2  UNL     1      -8.956  47.672 -25.684  1.00  0.00    -0.297 OA
HETATM   18  C25 UNL     1      -7.698  46.950 -23.750  1.00  0.00     0.018 C 
HETATM   19  C26 UNL     1      -8.861  47.511 -22.900  1.00  0.00     0.023 C 
HETATM   20  C27 UNL     1      -7.879  45.422 -23.839  1.00  0.00     0.023 C 
HETATM   21  C28 UNL     1      -6.284  47.274 -23.157  1.00  0.00     0.020 C 
HETATM   22  C29 UNL     1      -6.261  47.324 -21.629  1.00  0.00     0.090 C 
HETATM   23  C30 UNL     1      -4.840  47.371 -21.138  1.00  0.00     0.157 C 
HETATM   24  O3  UNL     1      -4.500  46.717 -20.157  1.00  0.00    -0.293 OA
ENDROOT
BRANCH   1  25
HETATM   25  C7  UNL     1      -0.012  51.423 -20.561  1.00  0.00    -0.014 C 
HETATM   26  C8  UNL     1      -0.450  52.079 -19.247  1.00  0.00     0.010 C 
BRANCH  25  27
HETATM   27  C6  UNL     1      -0.238  52.413 -21.736  1.00  0.00     0.008 C 
BRANCH  27  28
HETATM   28  C5  UNL     1       0.776  52.309 -22.883  1.00  0.00     0.028 C 
BRANCH  28  29
HETATM   29  C4  UNL     1       0.258  52.991 -24.118  1.00  0.00    -0.017 C 
HETATM   30  C2  UNL     1       0.615  52.755 -25.394  1.00  0.00    -0.028 C 
HETATM   31  C1  UNL     1       1.591  51.737 -25.893  1.00  0.00     0.051 C 
BRANCH  30  32
HETATM   32  C3  UNL     1      -0.038  53.575 -26.461  1.00  0.00     0.265 C 
HETATM   33  O1  UNL     1       0.134  54.779 -26.603  1.00  0.00    -0.302 OA
ENDBRANCH  30  32
ENDBRANCH  28  29
ENDBRANCH  27  28
ENDBRANCH  25  27
ENDBRANCH   1  25
TORSDOF 5
ENDMDL
