MODEL 1
REMARK minimizedAffinity -8.3243618
REMARK CNNscore 0.474221945
REMARK CNNaffinity 6.84909821
REMARK  12 active torsions:
REMARK  status: ('A' for Active; 'I' for Inactive)
REMARK    1  A    between atoms: C2_2  and  C3_3 
REMARK    2  A    between atoms: C2_2  and  C9_10 
REMARK    3  A    between atoms: C3_3  and  C4_4 
REMARK    4  A    between atoms: C5_5  and  C6_6 
REMARK    5  A    between atoms: C6_6  and  O1_9 
REMARK    6  A    between atoms: C27_29  and  O3_30 
REMARK    7  A    between atoms: O3_30  and  C28_31 
REMARK    8  A    between atoms: C29_33  and  C30_34 
REMARK    9  A    between atoms: C30_34  and  O5_35 
REMARK   10  A    between atoms: C31_36  and  O6_37 
REMARK   11  A    between atoms: C32_38  and  O7_39 
REMARK   12  A    between atoms: C33_40  and  O8_41 
ROOT
HETATM    1  C9  UNL     1      -3.376  14.238  19.782  1.00  0.00    -0.002 C 
HETATM    2  C10 UNL     1      -4.885  13.870  19.689  1.00  0.00     0.006 C 
HETATM    3  C11 UNL     1      -5.081  13.096  18.359  1.00  0.00     0.011 C 
HETATM    4  C12 UNL     1      -3.655  12.705  17.931  1.00  0.00    -0.029 C 
HETATM    5  C13 UNL     1      -3.297  11.452  18.799  1.00  0.00     0.016 C 
HETATM    6  C14 UNL     1      -3.440  12.411  16.412  1.00  0.00     0.028 C 
HETATM    7  C15 UNL     1      -4.265  11.249  15.897  1.00  0.00    -0.021 C 
HETATM    8  C16 UNL     1      -3.707  10.254  15.181  1.00  0.00     0.008 C 
HETATM    9  C17 UNL     1      -2.207  10.192  14.932  1.00  0.00     0.092 C 
HETATM   10  O2  UNL     1      -1.973  11.155  13.876  1.00  0.00    -0.374 OA
HETATM   11  C18 UNL     1      -1.752  12.439  14.486  1.00  0.00     0.179 C 
HETATM   12  C19 UNL     1      -1.895  12.280  16.023  1.00  0.00    -0.004 C 
HETATM   13  C20 UNL     1      -1.026  13.369  16.708  1.00  0.00     0.014 C 
HETATM   14  C21 UNL     1      -1.367  13.735  18.164  1.00  0.00     0.011 C 
HETATM   15  C22 UNL     1      -2.871  14.014  18.329  1.00  0.00    -0.032 C 
HETATM   16  C23 UNL     1      -3.230  15.258  17.465  1.00  0.00     0.016 C 
HETATM   17  C24 UNL     1      -1.474  10.788  16.164  1.00  0.00     0.036 C 
HETATM   18  C25 UNL     1       0.021  10.443  16.214  1.00  0.00     0.011 C 
HETATM   19  C26 UNL     1       0.603  10.039  14.877  1.00  0.00     0.033 C 
HETATM   20  C27 UNL     1      -0.114   8.832  14.249  1.00  0.00     0.136 C 
HETATM   21  C34 UNL     1      -1.673   8.791  14.486  1.00  0.00     0.014 C 
HETATM   22  C35 UNL     1      -2.388   8.301  13.197  1.00  0.00     0.021 C 
HETATM   23  C36 UNL     1      -1.966   7.736  15.586  1.00  0.00     0.021 C 
ENDROOT
BRANCH  20  24
HETATM   24  O3  UNL     1       0.176   8.765  12.842  1.00  0.00    -0.352 OA
BRANCH  24  25
HETATM   25  C28 UNL     1       1.428   8.152  12.522  1.00  0.00     0.292 C 
HETATM   26  O4  UNL     1       1.962   8.728  11.330  1.00  0.00    -0.348 OA
HETATM   27  C29 UNL     1       1.530   8.135  10.097  1.00  0.00     0.179 C 
HETATM   28  C31 UNL     1       1.969   6.655  10.021  1.00  0.00     0.180 C 
HETATM   29  C32 UNL     1       2.179   6.021  11.409  1.00  0.00     0.183 C 
HETATM   30  C33 UNL     1       1.228   6.616  12.439  1.00  0.00     0.204 C 
BRANCH  27  31
HETATM   31  C30 UNL     1       0.019   8.299   9.839  1.00  0.00     0.198 C 
BRANCH  31  32
HETATM   32  O5  UNL     1      -0.226   9.116   8.698  1.00  0.00    -0.398 OA
HETATM   33  H46 UNL     1      -0.296  10.038   9.025  1.00  0.00     0.209 HD
ENDBRANCH  31  32
ENDBRANCH  27  31
BRANCH  28  34
HETATM   34  O6  UNL     1       3.225   6.559   9.317  1.00  0.00    -0.390 OA
HETATM   35  H48 UNL     1       3.403   5.614   9.160  1.00  0.00     0.210 HD
ENDBRANCH  28  34
BRANCH  29  36
HETATM   36  O7  UNL     1       3.534   6.210  11.874  1.00  0.00    -0.390 OA
HETATM   37  H50 UNL     1       3.992   6.709  11.159  1.00  0.00     0.210 HD
ENDBRANCH  29  36
BRANCH  30  38
HETATM   38  O8  UNL     1       1.483   5.995  13.716  1.00  0.00    -0.388 OA
HETATM   39  H52 UNL     1       2.449   6.075  13.840  1.00  0.00     0.210 HD
ENDBRANCH  30  38
ENDBRANCH  24  25
ENDBRANCH  20  24
BRANCH   1  40
HETATM   40  C2  UNL     1      -2.981  15.518  20.577  1.00  0.00    -0.010 C 
HETATM   41  C1  UNL     1      -1.442  15.630  20.607  1.00  0.00     0.010 C 
BRANCH  40  42
HETATM   42  C3  UNL     1      -3.534  15.788  22.002  1.00  0.00     0.031 C 
BRANCH  42  43
HETATM   43  C4  UNL     1      -4.721  14.988  22.464  1.00  0.00    -0.027 C 
HETATM   44  C5  UNL     1      -5.942  15.499  22.683  1.00  0.00     0.006 C 
BRANCH  44  45
HETATM   45  C6  UNL     1      -7.172  14.762  23.163  1.00  0.00     0.068 C 
HETATM   46  C7  UNL     1      -7.104  13.235  23.070  1.00  0.00     0.050 C 
HETATM   47  C8  UNL     1      -7.483  15.165  24.608  1.00  0.00     0.050 C 
BRANCH  45  48
HETATM   48  O1  UNL     1      -8.267  15.173  22.347  1.00  0.00    -0.387 OA
HETATM   49  H15 UNL     1      -8.223  16.137  22.245  1.00  0.00     0.211 HD
ENDBRANCH  45  48
ENDBRANCH  44  45
ENDBRANCH  42  43
ENDBRANCH  40  42
ENDBRANCH   1  40
TORSDOF 12
ENDMDL
