MODEL 1
REMARK minimizedAffinity -9.51302624
REMARK  8 active torsions:
REMARK  status: ('A' for Active; 'I' for Inactive)
REMARK    1  A    between atoms: C4_4  and  C5_5 
REMARK    2  A    between atoms: C5_5  and  C6_6 
REMARK    3  A    between atoms: C6_6  and  C7_7 
REMARK    4  A    between atoms: C7_7  and  C9_9 
REMARK    5  A    between atoms: C18_18  and  C20_20 
REMARK    6  A    between atoms: C20_20  and  O2_22 
REMARK    7  A    between atoms: C21_23  and  O3_24 
REMARK    8  A    between atoms: C23_26  and  O4_27 
ROOT
HETATM    1  C9  UNL     1      -6.792   6.944  14.189  1.00  0.00    -0.002 C 
HETATM    2  C10 UNL     1      -6.858   8.302  14.922  1.00  0.00     0.006 C 
HETATM    3  C11 UNL     1      -5.419   8.852  14.983  1.00  0.00     0.011 C 
HETATM    4  C12 UNL     1      -4.569   7.916  14.100  1.00  0.00    -0.032 C 
HETATM    5  C13 UNL     1      -4.645   8.463  12.641  1.00  0.00     0.016 C 
HETATM    6  C14 UNL     1      -3.087   7.789  14.531  1.00  0.00     0.004 C 
HETATM    7  C15 UNL     1      -2.299   9.111  14.428  1.00  0.00     0.007 C 
HETATM    8  C16 UNL     1      -1.213   9.120  13.360  1.00  0.00     0.007 C 
HETATM    9  C17 UNL     1      -0.195   8.011  13.653  1.00  0.00     0.018 C 
HETATM   10  C18 UNL     1       1.173   8.141  12.906  1.00  0.00     0.072 C 
HETATM   11  C19 UNL     1       2.005   9.281  13.555  1.00  0.00     0.030 C 
HETATM   12  C21 UNL     1       1.950   6.810  13.067  1.00  0.00     0.139 C 
HETATM   13  C22 UNL     1       1.203   5.574  12.540  1.00  0.00     0.065 C 
HETATM   14  C23 UNL     1      -0.309   5.763  12.403  1.00  0.00     0.130 C 
HETATM   15  C24 UNL     1      -0.883   6.645  13.494  1.00  0.00    -0.001 A 
HETATM   16  C25 UNL     1      -1.312   5.928  14.752  1.00  0.00     0.024 A 
HETATM   17  C26 UNL     1      -2.391   6.556  13.888  1.00  0.00    -0.025 A 
HETATM   18  C27 UNL     1      -3.260   5.588  13.058  1.00  0.00     0.011 C 
HETATM   19  C28 UNL     1      -4.784   5.562  13.269  1.00  0.00     0.011 C 
HETATM   20  C29 UNL     1      -5.289   6.542  14.325  1.00  0.00    -0.032 C 
HETATM   21  C30 UNL     1      -5.030   5.903  15.718  1.00  0.00     0.016 C 
ENDROOT
BRANCH   1  22
HETATM   22  C7  UNL     1      -7.870   5.877  14.546  1.00  0.00    -0.014 C 
HETATM   23  C8  UNL     1      -8.528   6.228  15.888  1.00  0.00     0.010 C 
BRANCH  22  24
HETATM   24  C6  UNL     1      -7.427   4.393  14.489  1.00  0.00     0.008 C 
BRANCH  24  25
HETATM   25  C5  UNL     1      -7.777   3.587  13.222  1.00  0.00     0.028 C 
BRANCH  25  26
HETATM   26  C4  UNL     1      -6.776   3.770  12.111  1.00  0.00    -0.025 C 
HETATM   27  C2  UNL     1      -6.137   2.822  11.398  1.00  0.00    -0.091 C 
HETATM   28  C1  UNL     1      -6.280   1.339  11.593  1.00  0.00     0.042 C 
HETATM   29  C3  UNL     1      -5.185   3.207  10.295  1.00  0.00     0.042 C 
ENDBRANCH  25  26
ENDBRANCH  24  25
ENDBRANCH  22  24
ENDBRANCH   1  22
BRANCH  14  30
HETATM   30  O4  UNL     1      -0.626   6.336  11.138  1.00  0.00    -0.395 OA
HETATM   31  H39 UNL     1      -0.447   5.660  10.462  1.00  0.00     0.210 HD
ENDBRANCH  14  30
BRANCH  10  32
HETATM   32  C20 UNL     1       1.064   8.556  11.437  1.00  0.00     0.151 C 
HETATM   33  O1  UNL     1       1.819   8.253  10.526  1.00  0.00    -0.649 OA
BRANCH  32  34
HETATM   34  O2  UNL     1      -0.073   9.214  11.127  1.00  0.00    -0.776 OA
HETATM   35  H33 UNL     1       0.029   9.356  10.162  1.00  0.00     0.167 HD
ENDBRANCH  32  34
ENDBRANCH  10  32
BRANCH  12  36
HETATM   36  O3  UNL     1       2.247   6.588  14.460  1.00  0.00    -0.394 OA
HETATM   37  H35 UNL     1       2.891   5.862  14.508  1.00  0.00     0.210 HD
ENDBRANCH  12  36
TORSDOF 8
ENDMDL
