MODEL 1
REMARK minimizedAffinity -9.23885536
REMARK CNNscore 0.594339252
REMARK CNNaffinity 7.187572
REMARK  11 active torsions:
REMARK  status: ('A' for Active; 'I' for Inactive)
REMARK    1  A    between atoms: C3_4  and  O2_5 
REMARK    2  A    between atoms: O2_5  and  C4_6 
REMARK    3  A    between atoms: C7_9  and  C8_10 
REMARK    4  A    between atoms: N1_11  and  C9_13 
REMARK    5  A    between atoms: C9_13  and  C10_14 
REMARK    6  A    between atoms: C10_14  and  C11_15 
REMARK    7  A    between atoms: C22_26  and  C23_27 
REMARK    8  A    between atoms: C29_35  and  O5_36 
REMARK    9  A    between atoms: C33_40  and  O6_41 
REMARK   10  A    between atoms: C36_44  and  O7_45 
REMARK   11  A    between atoms: C37_46  and  O8_47 
ROOT
HETATM    1  C4  UNL     1      -6.918  45.470 -19.020  1.00  0.00     0.127 C 
HETATM    2  C5  UNL     1      -5.996  44.876 -20.078  1.00  0.00     0.033 C 
HETATM    3  C6  UNL     1      -4.723  45.705 -20.211  1.00  0.00     0.021 C 
HETATM    4  C7  UNL     1      -4.951  47.217 -20.524  1.00  0.00     0.026 C 
HETATM    5  C17 UNL     1      -3.566  47.944 -20.258  1.00  0.00     0.009 C 
HETATM    6  C18 UNL     1      -2.496  47.762 -21.352  1.00  0.00     0.007 C 
HETATM    7  C19 UNL     1      -2.223  49.034 -22.148  1.00  0.00     0.013 C 
HETATM    8  C20 UNL     1      -1.863  50.311 -21.315  1.00  0.00    -0.005 C 
HETATM    9  C21 UNL     1      -2.400  51.506 -22.139  1.00  0.00     0.019 C 
HETATM   10  C22 UNL     1      -0.316  50.413 -21.075  1.00  0.00     0.028 C 
HETATM   11  C27 UNL     1      -0.077  49.570 -19.817  1.00  0.00     0.013 C 
HETATM   12  C28 UNL     1      -1.334  49.694 -18.960  1.00  0.00     0.040 C 
HETATM   13  C29 UNL     1      -2.458  50.240 -19.869  1.00  0.00     0.070 C 
HETATM   14  C30 UNL     1      -3.762  49.410 -19.829  1.00  0.00     0.026 C 
HETATM   15  C31 UNL     1      -4.485  49.444 -18.461  1.00  0.00     0.011 C 
HETATM   16  C32 UNL     1      -5.508  48.305 -18.282  1.00  0.00     0.039 C 
HETATM   17  C33 UNL     1      -6.097  47.832 -19.627  1.00  0.00     0.073 C 
HETATM   18  C34 UNL     1      -7.294  46.886 -19.437  1.00  0.00     0.071 C 
ENDROOT
BRANCH   1  19
HETATM   19  O2  UNL     1      -8.134  44.724 -18.936  1.00  0.00    -0.356 OA
BRANCH  19  20
HETATM   20  C3  UNL     1      -9.300  45.538 -18.801  1.00  0.00     0.263 C 
HETATM   21  O1  UNL     1      -9.788  45.528 -17.465  1.00  0.00    -0.354 OA
HETATM   22  C2  UNL     1     -10.845  46.477 -17.240  1.00  0.00     0.151 C 
HETATM   23  C1  UNL     1     -10.247  47.766 -16.688  1.00  0.00     0.042 C 
HETATM   24  C37 UNL     1     -11.750  46.684 -18.480  1.00  0.00     0.175 C 
HETATM   25  C36 UNL     1     -11.782  45.396 -19.316  1.00  0.00     0.154 C 
HETATM   26  C35 UNL     1     -10.375  44.952 -19.722  1.00  0.00     0.095 C 
BRANCH  24  27
HETATM   27  O8  UNL     1     -11.265  47.755 -19.297  1.00  0.00    -0.390 OA
HETATM   28  H51 UNL     1     -11.954  47.946 -19.960  1.00  0.00     0.210 HD
ENDBRANCH  24  27
BRANCH  25  29
HETATM   29  O7  UNL     1     -12.445  44.355 -18.595  1.00  0.00    -0.393 OA
HETATM   30  H49 UNL     1     -11.818  44.005 -17.931  1.00  0.00     0.210 HD
ENDBRANCH  25  29
ENDBRANCH  19  20
ENDBRANCH   1  19
BRANCH  17  31
HETATM   31  O6  UNL     1      -6.640  49.019 -20.243  1.00  0.00    -0.389 OA
HETATM   32  H43 UNL     1      -7.397  49.318 -19.707  1.00  0.00     0.210 HD
ENDBRANCH  17  31
BRANCH   4  33
HETATM   33  C8  UNL     1      -5.344  47.430 -21.993  1.00  0.00     0.068 C 
HETATM   34  N1  UNL     1      -6.535  47.197 -22.427  1.00  0.00    -0.401 N 
ATOM     35  H1  UNL     1      -7.286  46.874 -21.817  1.00  0.00     0.158 HD
BRANCH  34  36
HETATM   36  C9  UNL     1      -6.732  47.430 -23.863  1.00  0.00     0.123 C 
BRANCH  36  37
HETATM   37  C10 UNL     1      -6.087  48.764 -24.241  1.00  0.00     0.058 C 
BRANCH  37  38
HETATM   38  C11 UNL     1      -5.112  48.615 -25.382  1.00  0.00    -0.057 A 
HETATM   39  C12 UNL     1      -5.561  48.263 -26.662  1.00  0.00     0.007 A 
HETATM   40  C13 UNL     1      -4.653  48.113 -27.712  1.00  0.00     0.001 A 
HETATM   41  C14 UNL     1      -3.291  48.308 -27.492  1.00  0.00     0.000 A 
HETATM   42  C15 UNL     1      -2.834  48.649 -26.221  1.00  0.00     0.001 A 
HETATM   43  C16 UNL     1      -3.739  48.802 -25.170  1.00  0.00     0.007 A 
ENDBRANCH  37  38
ENDBRANCH  36  37
ENDBRANCH  34  36
ENDBRANCH   4  33
BRANCH  13  44
HETATM   44  O5  UNL     1      -2.744  51.559 -19.383  1.00  0.00    -0.389 OA
HETATM   45  H37 UNL     1      -3.547  51.884 -19.826  1.00  0.00     0.210 HD
ENDBRANCH  13  44
BRANCH  10  46
HETATM   46  C23 UNL     1       0.258  51.804 -20.946  1.00  0.00    -0.045 A 
HETATM   47  C24 UNL     1       0.764  52.606 -21.885  1.00  0.00     0.087 A 
HETATM   48  C25 UNL     1       1.167  53.845 -21.226  1.00  0.00     0.283 A 
HETATM   49  O3  UNL     1       1.673  54.802 -21.784  1.00  0.00    -0.260 OA
HETATM   50  O4  UNL     1       0.881  53.759 -19.900  1.00  0.00    -0.314 OA
HETATM   51  C26 UNL     1       0.286  52.490 -19.632  1.00  0.00     0.213 A 
ENDBRANCH  10  46
TORSDOF 11
ENDMDL
