MODEL 1
REMARK minimizedAffinity -8.51937675
REMARK CNNscore 0.165986389
REMARK CNNaffinity 6.94950867
REMARK  14 active torsions:
REMARK  status: ('A' for Active; 'I' for Inactive)
REMARK       I    between atoms: N1_1  and  C1_2 
REMARK       I    between atoms: C1_2  and  N2_3 
REMARK    1  A    between atoms: N3_4  and  C2_6 
REMARK    2  A    between atoms: C2_6  and  C3_7 
REMARK    3  A    between atoms: C3_7  and  C4_8 
REMARK    4  A    between atoms: C4_8  and  C5_9 
REMARK    5  A    between atoms: C4_8  and  C6_11 
REMARK    6  A    between atoms: C5_9  and  O1_10 
REMARK    7  A    between atoms: C6_11  and  C7_12 
REMARK    8  A    between atoms: C21_27  and  S1_28 
REMARK    9  A    between atoms: C22_32  and  C23_33 
REMARK   10  A    between atoms: C24_34  and  C25_35 
REMARK   11  A    between atoms: C25_35  and  O6_36 
REMARK   12  A    between atoms: C25_35  and  C26_37 
REMARK   13  A    between atoms: C29_40  and  O7_41 
REMARK   14  A    between atoms: C33_45  and  NA1_51 
ROOT
HETATM    1  C2  UNL     1       1.621  52.514 -10.518  1.00  0.00     0.171 C 
HETATM    2  O2  UNL     1       1.287  51.285  -9.748  1.00  0.00    -0.316 OA
HETATM    3  C13 UNL     1       0.684  50.245 -10.405  1.00  0.00     0.072 C 
HETATM    4  C14 UNL     1       1.435  49.082 -10.568  1.00  0.00     0.037 C 
HETATM    5  C15 UNL     1       0.978  48.078 -11.423  1.00  0.00     0.010 C 
HETATM    6  C16 UNL     1      -0.246  48.218 -12.089  1.00  0.00    -0.058 C 
HETATM    7  C17 UNL     1      -1.051  49.329 -11.809  1.00  0.00     0.010 C 
HETATM    8  C18 UNL     1      -0.596  50.334 -10.953  1.00  0.00     0.037 C 
HETATM    9  C19 UNL     1      -0.702  47.191 -13.095  1.00  0.00     0.040 C 
HETATM   10  C20 UNL     1       0.074  47.194 -14.434  1.00  0.00     0.028 C 
HETATM   11  C21 UNL     1      -0.565  47.912 -15.666  1.00  0.00     0.138 C 
HETATM   12  C22 UNL     1      -0.423  49.464 -15.665  1.00  0.00     0.031 C 
HETATM   13  C32 UNL     1       1.067  49.950 -15.658  1.00  0.00     0.041 C 
HETATM   14  C33 UNL     1       1.397  50.879 -14.507  1.00  0.00     0.029 C 
HETATM   15  C34 UNL     1       0.564  51.953 -14.178  1.00  0.00     0.137 C 
HETATM   16  C35 UNL     1       0.701  52.608 -12.953  1.00  0.00     0.012 C 
HETATM   17  C36 UNL     1       1.691  52.200 -12.042  1.00  0.00    -0.003 C 
HETATM   18  C37 UNL     1       2.679  51.309 -12.503  1.00  0.00     0.010 C 
HETATM   19  C38 UNL     1       2.523  50.640 -13.714  1.00  0.00     0.001 C 
ENDROOT
BRANCH   1  20
HETATM   20  N3  UNL     1       2.908  53.072 -10.048  1.00  0.00    -0.336 N 
HETATM   21  C1  UNL     1       3.388  54.196 -10.408  1.00  0.00     0.124 C 
HETATM   22  N1  UNL     1       4.530  54.636  -9.824  1.00  0.00    -0.279 NA
HETATM   23  N2  UNL     1       2.954  55.137 -11.277  1.00  0.00    -0.279 NA
HETATM   24  H1  UNL     1       4.446  55.605  -9.532  1.00  0.00     0.126 HD
HETATM   25  H2  UNL     1       4.727  54.049  -9.021  1.00  0.00     0.126 HD
HETATM   26  H3  UNL     1       3.722  55.589 -11.757  1.00  0.00     0.126 HD
HETATM   27  H4  UNL     1       2.279  54.793 -11.960  1.00  0.00     0.126 HD
ATOM     28  H3  UNL     1       3.452  52.516  -9.388  1.00  0.00     0.165 HD
ENDBRANCH   1  20
BRANCH   1  29
HETATM   29  C3  UNL     1       0.503  53.546 -10.114  1.00  0.00     0.074 C 
BRANCH  29  30
HETATM   30  C4  UNL     1       0.179  53.664  -8.594  1.00  0.00     0.018 C 
BRANCH  30  31
HETATM   31  C5  UNL     1       1.416  53.240  -7.786  1.00  0.00     0.169 C 
BRANCH  31  32
HETATM   32  O1  UNL     1       2.175  54.374  -7.381  1.00  0.00    -0.400 OA
HETATM   33  H10 UNL     1       2.812  54.063  -6.718  1.00  0.00     0.209 HD
ENDBRANCH  31  32
ENDBRANCH  30  31
BRANCH  30  34
HETATM   34  C6  UNL     1      -1.066  52.857  -8.180  1.00  0.00     0.045 C 
BRANCH  34  35
HETATM   35  C7  UNL     1      -2.180  52.905  -9.200  1.00  0.00    -0.058 A 
HETATM   36  C8  UNL     1      -2.924  51.750  -9.482  1.00  0.00     0.007 A 
HETATM   37  C9  UNL     1      -3.967  51.787 -10.408  1.00  0.00     0.001 A 
HETATM   38  C10 UNL     1      -4.266  52.976 -11.069  1.00  0.00     0.000 A 
HETATM   39  C11 UNL     1      -3.511  54.121 -10.823  1.00  0.00     0.001 A 
HETATM   40  C12 UNL     1      -2.471  54.088  -9.894  1.00  0.00     0.007 A 
ENDBRANCH  34  35
ENDBRANCH  30  34
ENDBRANCH  29  30
ENDBRANCH   1  29
BRANCH  14  41
HETATM   41 NA1  UNL     1      -0.032  51.181 -12.930  1.00  0.00    -0.379 Na
ATOM     42 2HA1 UNL     1      -0.617  50.568 -12.363  1.00  0.00     0.091 HD
ATOM     43 1HA1 UNL     1       0.024  51.471 -11.954  1.00  0.00     0.091 HD
ENDBRANCH  14  41
BRANCH  12  44
HETATM   44  C23 UNL     1      -1.128  50.218 -16.789  1.00  0.00    -0.022 C 
HETATM   45  C24 UNL     1      -0.659  50.423 -18.034  1.00  0.00     0.006 C 
BRANCH  45  46
HETATM   46  C25 UNL     1      -1.376  51.219 -19.089  1.00  0.00     0.173 C 
BRANCH  46  47
HETATM   47  O6  UNL     1      -2.460  51.910 -18.450  1.00  0.00    -0.387 OA
HETATM   48  H31 UNL     1      -2.522  51.558 -17.543  1.00  0.00     0.210 HD
ENDBRANCH  46  47
BRANCH  46  49
HETATM   49  C26 UNL     1      -0.482  52.183 -19.853  1.00  0.00    -0.026 A 
HETATM   50  C27 UNL     1       0.061  53.345 -19.273  1.00  0.00     0.013 A 
HETATM   51  C28 UNL     1       0.879  54.201 -20.020  1.00  0.00     0.037 A 
HETATM   52  C29 UNL     1       1.155  53.905 -21.352  1.00  0.00     0.065 A 
HETATM   53  C30 UNL     1       0.630  52.767 -21.952  1.00  0.00     0.037 A 
HETATM   54  C31 UNL     1      -0.189  51.913 -21.206  1.00  0.00     0.013 A 
BRANCH  52  55
HETATM   55  O7  UNL     1       1.969  54.755 -22.047  1.00  0.00    -0.361 OA
HETATM   56  H34 UNL     1       2.092  54.378 -22.935  1.00  0.00     0.217 HD
ENDBRANCH  52  55
ENDBRANCH  46  49
ENDBRANCH  45  46
ENDBRANCH  12  44
BRANCH  11  57
HETATM   57  S1  UNL     1      -2.281  47.348 -15.917  1.00  0.00     0.106 S 
HETATM   58  O3  UNL     1      -2.524  47.551 -17.347  1.00  0.00    -0.595 OA
HETATM   59  O4  UNL     1      -2.267  45.945 -15.501  1.00  0.00    -0.595 OA
HETATM   60  O5  UNL     1      -3.082  48.229 -15.070  1.00  0.00    -0.595 OA
ENDBRANCH  11  57
TORSDOF 14
ENDMDL
