MODEL 1
REMARK minimizedAffinity -7.83587313
REMARK CNNscore 0.602548361
REMARK CNNaffinity 6.74096537
REMARK  10 active torsions:
REMARK  status: ('A' for Active; 'I' for Inactive)
REMARK    1  A    between atoms: C19_21  and  O3_22 
REMARK    2  A    between atoms: C19_21  and  C20_23 
REMARK    3  A    between atoms: C20_23  and  C21_25 
REMARK    4  A    between atoms: C21_25  and  O5_26 
REMARK    5  A    between atoms: O5_26  and  C22_27 
REMARK    6  A    between atoms: C22_27  and  C23_29 
REMARK    7  A    between atoms: C23_29  and  C24_30 
REMARK    8  A    between atoms: C24_30  and  C25_31 
REMARK       I    between atoms: C25_31  and  N1_33 
REMARK    9  A    between atoms: N1_33  and  C26_34 
REMARK   10  A    between atoms: C26_34  and  C27_35 
ROOT
HETATM    1  C1  UNL     1      -2.452   7.238  12.652  1.00  0.00     0.021 C 
HETATM    2  C2  UNL     1      -3.307   6.683  13.815  1.00  0.00    -0.009 C 
HETATM    3  C3  UNL     1      -2.852   5.231  14.152  1.00  0.00     0.022 C 
HETATM    4  C4  UNL     1      -3.268   4.196  13.117  1.00  0.00     0.084 C 
HETATM    5  C5  UNL     1      -4.758   4.238  12.906  1.00  0.00     0.149 C 
HETATM    6  O1  UNL     1      -5.410   3.241  12.610  1.00  0.00    -0.293 OA
HETATM    7  C6  UNL     1      -5.431   5.555  12.980  1.00  0.00     0.053 C 
HETATM    8  C7  UNL     1      -4.774   6.669  13.345  1.00  0.00    -0.067 C 
HETATM    9  C8  UNL     1      -5.480   8.003  13.274  1.00  0.00     0.035 C 
HETATM   10  C9  UNL     1      -5.344   8.789  14.572  1.00  0.00     0.010 C 
HETATM   11  C10 UNL     1      -3.872   8.955  14.972  1.00  0.00     0.003 C 
HETATM   12  C11 UNL     1      -3.199   7.558  15.116  1.00  0.00     0.072 C 
HETATM   13  C12 UNL     1      -1.780   7.723  15.693  1.00  0.00     0.133 C 
HETATM   14  O2  UNL     1      -0.783   7.188  15.214  1.00  0.00    -0.297 OA
HETATM   15  C13 UNL     1      -1.652   8.550  16.967  1.00  0.00     0.091 C 
HETATM   16  C14 UNL     1      -2.269   9.936  16.745  1.00  0.00     0.005 C 
HETATM   17  C15 UNL     1      -1.423  10.714  15.700  1.00  0.00     0.019 C 
HETATM   18  C16 UNL     1      -3.739   9.716  16.298  1.00  0.00     0.002 C 
HETATM   19  C17 UNL     1      -4.357  11.104  16.390  1.00  0.00     0.009 C 
HETATM   20  C18 UNL     1      -3.640  11.767  17.580  1.00  0.00     0.047 C 
HETATM   21  C19 UNL     1      -2.502  10.798  18.021  1.00  0.00     0.128 C 
ENDROOT
BRANCH  21  22
HETATM   22  O3  UNL     1      -3.048   9.968  19.049  1.00  0.00    -0.381 OA
HETATM   23  H25 UNL     1      -3.239  10.554  19.814  1.00  0.00     0.211 HD
ENDBRANCH  21  22
BRANCH  21  24
HETATM   24  C20 UNL     1      -1.260  11.568  18.537  1.00  0.00     0.185 C 
HETATM   25  O4  UNL     1      -1.033  12.734  18.195  1.00  0.00    -0.292 OA
BRANCH  24  26
HETATM   26  C21 UNL     1      -0.243  10.839  19.429  1.00  0.00     0.260 C 
BRANCH  26  27
HETATM   27  O5  UNL     1       1.040  10.453  18.958  1.00  0.00    -0.314 OA
BRANCH  27  28
HETATM   28  C22 UNL     1       2.087  11.138  19.493  1.00  0.00     0.259 C 
HETATM   29  O6  UNL     1       3.041  11.560  18.850  1.00  0.00    -0.265 OA
BRANCH  28  30
HETATM   30  C23 UNL     1       1.875  11.338  20.974  1.00  0.00     0.120 C 
BRANCH  30  31
HETATM   31  C24 UNL     1       2.336  10.117  21.765  1.00  0.00     0.112 C 
BRANCH  31  32
HETATM   32  C25 UNL     1       3.797  10.234  22.159  1.00  0.00     0.218 C 
HETATM   33  O7  UNL     1       4.425   9.302  22.649  1.00  0.00    -0.274 OA
HETATM   34  N1  UNL     1       4.328  11.482  21.928  1.00  0.00    -0.357 N 
HETATM   35  H32 UNL     1       3.776  12.154  21.408  1.00  0.00     0.162 HD
BRANCH  34  36
HETATM   36  C26 UNL     1       5.756  11.709  21.962  1.00  0.00     0.161 C 
BRANCH  36  37
HETATM   37  C27 UNL     1       6.053  13.060  22.559  1.00  0.00    -0.038 A 
HETATM   38  C28 UNL     1       5.068  14.046  22.643  1.00  0.00     0.025 A 
HETATM   39  C29 UNL     1       5.411  15.285  23.164  1.00  0.00     0.088 A 
HETATM   40  N2  UNL     1       6.652  15.606  23.591  1.00  0.00    -0.375 N 
HETATM   41  C30 UNL     1       7.592  14.643  23.494  1.00  0.00     0.088 A 
ATOM     42  H2  UNL     1       6.866  16.529  23.969  1.00  0.00     0.164 HD
HETATM   43  C31 UNL     1       7.344  13.372  22.999  1.00  0.00     0.025 A 
ENDBRANCH  36  37
ENDBRANCH  34  36
ENDBRANCH  31  32
ENDBRANCH  30  31
ENDBRANCH  28  30
ENDBRANCH  27  28
ENDBRANCH  26  27
ENDBRANCH  24  26
ENDBRANCH  21  24
TORSDOF 10
ENDMDL
