MODEL 1
REMARK minimizedAffinity -10.4371948
REMARK CNNscore 0.878795683
REMARK CNNaffinity 7.36312056
REMARK  9 active torsions:
REMARK  status: ('A' for Active; 'I' for Inactive)
REMARK    1  A    between atoms: C2_2  and  C3_3 
REMARK    2  A    between atoms: C3_3  and  C5_5 
REMARK    3  A    between atoms: C3_3  and  C6_7 
REMARK    4  A    between atoms: C5_5  and  O1_6 
REMARK    5  A    between atoms: C7_8  and  O2_9 
REMARK    6  A    between atoms: C18_22  and  O5_23 
REMARK    7  A    between atoms: O5_23  and  C19_24 
REMARK    8  A    between atoms: C19_24  and  C20_26 
REMARK    9  A    between atoms: C29_36  and  O8_37 
ROOT
HETATM    1  C6  UNL     1      -0.275  52.231 -25.136  1.00  0.00     0.023 A 
HETATM    2  C7  UNL     1       0.335  53.396 -24.611  1.00  0.00     0.076 A 
HETATM    3  C8  UNL     1       0.518  53.597 -23.242  1.00  0.00     0.053 A 
HETATM    4  C9  UNL     1       0.075  52.638 -22.333  1.00  0.00     0.034 A 
HETATM    5  C10 UNL     1       0.264  52.878 -20.892  1.00  0.00     0.192 C 
HETATM    6  O3  UNL     1       0.668  53.970 -20.510  1.00  0.00    -0.287 OA
HETATM    7  C11 UNL     1      -0.078  51.797 -19.933  1.00  0.00     0.035 C 
HETATM    8  C12 UNL     1      -0.783  50.737 -20.357  1.00  0.00     0.131 C 
HETATM    9  O4  UNL     1      -1.314  49.783 -19.509  1.00  0.00    -0.336 OA
HETATM   10  C13 UNL     1      -1.381  50.093 -18.102  1.00  0.00     0.065 C 
HETATM   11  C14 UNL     1      -2.607  50.981 -17.839  1.00  0.00     0.046 C 
HETATM   12  C15 UNL     1      -1.616  48.737 -17.415  1.00  0.00     0.046 C 
HETATM   13  C16 UNL     1      -0.038  50.712 -17.660  1.00  0.00     0.031 C 
HETATM   14  C17 UNL     1       0.098  51.014 -16.162  1.00  0.00     0.041 C 
HETATM   15  C18 UNL     1       1.528  51.459 -15.821  1.00  0.00     0.136 C 
HETATM   16  C23 UNL     1       1.979  52.640 -16.701  1.00  0.00     0.012 C 
HETATM   17  C24 UNL     1       3.450  52.985 -16.443  1.00  0.00     0.012 C 
HETATM   18  C25 UNL     1       1.752  52.359 -18.197  1.00  0.00     0.017 C 
HETATM   19  C26 UNL     1       0.277  51.992 -18.473  1.00  0.00     0.033 C 
HETATM   20  C27 UNL     1      -1.081  50.528 -21.805  1.00  0.00     0.219 C 
HETATM   21  O7  UNL     1      -1.733  49.563 -22.198  1.00  0.00    -0.284 OA
HETATM   22  C28 UNL     1      -0.569  51.499 -22.790  1.00  0.00     0.065 A 
HETATM   23  C29 UNL     1      -0.753  51.302 -24.180  1.00  0.00     0.091 A 
ENDROOT
BRANCH   1  24
HETATM   24  C3  UNL     1      -0.425  52.063 -26.684  1.00  0.00     0.027 C 
HETATM   25  C4  UNL     1      -1.606  51.173 -27.156  1.00  0.00     0.027 C 
BRANCH  24  26
HETATM   26  C2  UNL     1       0.796  51.303 -27.243  1.00  0.00    -0.021 C 
HETATM   27  C1  UNL     1       1.880  51.817 -27.841  1.00  0.00     0.008 C 
ENDBRANCH  24  26
BRANCH  24  28
HETATM   28  C5  UNL     1      -0.638  53.500 -27.273  1.00  0.00     0.182 C 
BRANCH  28  29
HETATM   29  O1  UNL     1      -1.842  53.664 -28.030  1.00  0.00    -0.399 OA
HETATM   30  H9  UNL     1      -2.588  53.593 -27.410  1.00  0.00     0.209 HD
ENDBRANCH  28  29
ENDBRANCH  24  28
ENDBRANCH   1  24
BRANCH   2  31
HETATM   31  O2  UNL     1       0.743  54.389 -25.458  1.00  0.00    -0.360 OA
HETATM   32  H10 UNL     1       1.198  55.094 -24.967  1.00  0.00     0.217 HD
ENDBRANCH   2  31
BRANCH  23  33
HETATM   33  O8  UNL     1      -1.440  50.199 -24.620  1.00  0.00    -0.359 OA
HETATM   34  H36 UNL     1      -1.732  49.655 -23.852  1.00  0.00     0.217 HD
ENDBRANCH  23  33
BRANCH  15  35
HETATM   35  O5  UNL     1       1.567  51.890 -14.447  1.00  0.00    -0.315 OA
BRANCH  35  36
HETATM   36  C19 UNL     1       2.472  51.269 -13.642  1.00  0.00     0.262 C 
HETATM   37  O6  UNL     1       3.153  50.305 -13.966  1.00  0.00    -0.265 OA
BRANCH  36  38
HETATM   38  C20 UNL     1       2.500  51.890 -12.259  1.00  0.00     0.077 C 
HETATM   39  C21 UNL     1       2.857  50.831 -11.224  1.00  0.00     0.020 C 
HETATM   40  C22 UNL     1       1.186  52.589 -11.924  1.00  0.00     0.020 C 
ENDBRANCH  36  38
ENDBRANCH  35  36
ENDBRANCH  15  35
TORSDOF 9
ENDMDL
