MODEL 1
REMARK minimizedAffinity -6.47612238
REMARK CNNscore 0.324590147
REMARK CNNaffinity 5.87648535
REMARK  4 active torsions:
REMARK  status: ('A' for Active; 'I' for Inactive)
REMARK    1  A    between atoms: C4_4  and  C5_5 
REMARK    2  A    between atoms: C5_5  and  C6_6 
REMARK    3  A    between atoms: C6_6  and  C7_7 
REMARK    4  A    between atoms: C7_7  and  C9_9 
ROOT
HETATM    1  C9  UNL     1     -13.591   7.827  23.457  1.00  0.00    -0.001 C 
HETATM    2  C10 UNL     1     -12.163   7.285  23.755  1.00  0.00     0.007 C 
HETATM    3  C11 UNL     1     -11.191   8.477  23.736  1.00  0.00     0.024 C 
HETATM    4  C12 UNL     1     -12.082   9.686  23.566  1.00  0.00     0.092 C 
HETATM    5  C13 UNL     1     -12.552  10.247  24.934  1.00  0.00     0.272 C 
HETATM    6  O1  UNL     1     -12.667   9.648  25.988  1.00  0.00    -0.264 OA
HETATM    7  O2  UNL     1     -12.827  11.593  24.778  1.00  0.00    -0.305 OA
HETATM    8  C14 UNL     1     -12.571  11.971  23.403  1.00  0.00     0.113 C 
HETATM    9  C15 UNL     1     -13.888  11.688  22.614  1.00  0.00     0.043 C 
HETATM   10  C16 UNL     1     -14.430  10.245  22.809  1.00  0.00     0.014 C 
HETATM   11  C17 UNL     1     -13.304   9.181  22.732  1.00  0.00    -0.020 C 
HETATM   12  C18 UNL     1     -12.954   8.940  21.241  1.00  0.00     0.017 C 
HETATM   13  C19 UNL     1     -11.547  10.952  23.022  1.00  0.00     0.137 A 
HETATM   14  O3  UNL     1     -10.851  11.019  21.794  1.00  0.00    -0.364 OA
HETATM   15  C20 UNL     1     -10.078  11.279  22.988  1.00  0.00     0.162 A 
HETATM   16  C21 UNL     1      -9.615  12.689  23.137  1.00  0.00     0.041 C 
HETATM   17  C22 UNL     1     -10.610  13.549  23.947  1.00  0.00     0.010 C 
HETATM   18  C23 UNL     1     -10.095  15.007  24.102  1.00  0.00     0.056 C 
HETATM   19  C24 UNL     1      -8.738  15.087  24.809  1.00  0.00     0.018 C 
HETATM   20  C25 UNL     1     -11.124  15.845  24.858  1.00  0.00     0.131 C 
HETATM   21  O4  UNL     1     -10.825  16.586  25.794  1.00  0.00    -0.298 OA
HETATM   22  C26 UNL     1     -12.535  15.805  24.331  1.00  0.00     0.079 C 
HETATM   23  C27 UNL     1     -13.000  14.361  24.213  1.00  0.00     0.020 C 
HETATM   24  C28 UNL     1     -12.067  13.463  23.343  1.00  0.00    -0.004 C 
HETATM   25  C29 UNL     1     -12.103  13.990  21.884  1.00  0.00     0.019 C 
ENDROOT
BRANCH   1  26
HETATM   26  C7  UNL     1     -14.493   6.766  22.765  1.00  0.00    -0.014 C 
HETATM   27  C8  UNL     1     -15.828   6.557  23.485  1.00  0.00     0.010 C 
BRANCH  26  28
HETATM   28  C6  UNL     1     -13.791   5.399  22.522  1.00  0.00     0.008 C 
BRANCH  28  29
HETATM   29  C5  UNL     1     -14.080   4.252  23.506  1.00  0.00     0.028 C 
BRANCH  29  30
HETATM   30  C4  UNL     1     -12.872   3.448  23.889  1.00  0.00    -0.025 C 
HETATM   31  C2  UNL     1     -12.826   2.263  24.529  1.00  0.00    -0.091 C 
HETATM   32  C1  UNL     1     -14.013   1.473  25.003  1.00  0.00     0.042 C 
HETATM   33  C3  UNL     1     -11.498   1.619  24.842  1.00  0.00     0.042 C 
ENDBRANCH  29  30
ENDBRANCH  28  29
ENDBRANCH  26  28
ENDBRANCH   1  26
TORSDOF 4
ENDMDL
