MODEL 1
REMARK minimizedAffinity -8.57018852
REMARK CNNscore 0.749480247
REMARK CNNaffinity 6.90897799
REMARK  8 active torsions:
REMARK  status: ('A' for Active; 'I' for Inactive)
REMARK    1  A    between atoms: O1_2  and  C2_3 
REMARK    2  A    between atoms: C2_3  and  C3_4 
REMARK    3  A    between atoms: C7_8  and  C8_9 
REMARK    4  A    between atoms: C8_9  and  C9_10 
REMARK    5  A    between atoms: C8_9  and  C10_12 
REMARK    6  A    between atoms: C9_10  and  O2_11 
REMARK    7  A    between atoms: C19_21  and  S1_22 
REMARK    8  A    between atoms: S1_22  and  O5_25 
ROOT
HETATM    1  C10 UNL     1     -10.018  47.669 -28.930  1.00  0.00     0.003 C 
HETATM    2  C11 UNL     1     -11.027  47.912 -30.065  1.00  0.00     0.006 C 
HETATM    3  C12 UNL     1     -12.380  47.580 -29.454  1.00  0.00     0.006 C 
HETATM    4  C13 UNL     1     -12.072  46.255 -28.761  1.00  0.00    -0.001 C 
HETATM    5  C14 UNL     1     -13.189  45.632 -27.887  1.00  0.00    -0.001 C 
HETATM    6  C15 UNL     1     -14.537  45.627 -28.626  1.00  0.00     0.033 C 
HETATM    7  C16 UNL     1     -15.694  45.218 -27.774  1.00  0.00    -0.022 C 
HETATM    8  C17 UNL     1     -15.661  45.143 -26.433  1.00  0.00    -0.066 C 
HETATM    9  C18 UNL     1     -16.919  44.791 -25.662  1.00  0.00     0.057 C 
HETATM   10  C19 UNL     1     -17.241  45.815 -24.563  1.00  0.00     0.132 C 
HETATM   11  C20 UNL     1     -16.270  46.987 -24.544  1.00  0.00     0.101 C 
HETATM   12  C21 UNL     1     -14.866  46.433 -24.474  1.00  0.00     0.141 C 
HETATM   13  O6  UNL     1     -14.132  46.738 -23.533  1.00  0.00    -0.297 OA
HETATM   14  C22 UNL     1     -14.410  45.488 -25.612  1.00  0.00     0.044 C 
HETATM   15  C23 UNL     1     -13.876  44.191 -24.974  1.00  0.00     0.029 C 
HETATM   16  C24 UNL     1     -13.327  46.244 -26.475  1.00  0.00     0.010 C 
HETATM   17  C25 UNL     1     -11.942  46.293 -25.801  1.00  0.00     0.007 C 
HETATM   18  C26 UNL     1     -10.943  47.095 -26.626  1.00  0.00     0.010 C 
HETATM   19  C27 UNL     1     -10.709  46.532 -28.050  1.00  0.00    -0.036 C 
HETATM   20  C28 UNL     1      -9.933  45.204 -27.981  1.00  0.00     0.016 C 
ENDROOT
BRANCH   1  21
HETATM   21  C8  UNL     1      -8.526  47.464 -29.363  1.00  0.00     0.044 C 
BRANCH  21  22
HETATM   22  C7  UNL     1      -7.491  47.985 -28.306  1.00  0.00     0.142 C 
HETATM   23  C6  UNL     1      -7.559  47.284 -26.949  1.00  0.00     0.067 C 
HETATM   24  C4  UNL     1      -6.403  47.697 -26.075  1.00  0.00    -0.067 C 
HETATM   25  C3  UNL     1      -5.251  48.143 -26.623  1.00  0.00     0.043 C 
HETATM   26  C5  UNL     1      -6.647  47.537 -24.600  1.00  0.00     0.044 C 
HETATM   27  C29 UNL     1      -5.075  48.075 -28.101  1.00  0.00     0.292 C 
HETATM   28  O7  UNL     1      -6.167  47.780 -28.844  1.00  0.00    -0.311 OA
HETATM   29  O8  UNL     1      -3.977  48.233 -28.624  1.00  0.00    -0.260 OA
BRANCH  25  30
HETATM   30  C2  UNL     1      -4.018  48.674 -25.932  1.00  0.00     0.212 C 
BRANCH  30  31
HETATM   31  O1  UNL     1      -4.208  49.996 -25.421  1.00  0.00    -0.391 OA
HETATM   32  C1  UNL     1      -3.258  50.903 -25.960  1.00  0.00     0.201 C 
ENDBRANCH  30  31
ENDBRANCH  25  30
ENDBRANCH  21  22
BRANCH  21  33
HETATM   33  C9  UNL     1      -8.291  45.969 -29.654  1.00  0.00     0.171 C 
BRANCH  33  34
HETATM   34  O2  UNL     1      -8.461  45.690 -31.038  1.00  0.00    -0.400 OA
HETATM   35  H15 UNL     1      -9.402  45.820 -31.246  1.00  0.00     0.209 HD
ENDBRANCH  33  34
ENDBRANCH  21  33
ENDBRANCH   1  21
BRANCH  10  36
HETATM   36  S1  UNL     1     -18.931  46.389 -24.736  1.00  0.00     0.099 S 
HETATM   37  O3  UNL     1     -19.795  45.670 -23.830  1.00  0.00    -0.601 OA
HETATM   38  O4  UNL     1     -18.944  47.831 -24.841  1.00  0.00    -0.601 OA
BRANCH  36  39
HETATM   39  O5  UNL     1     -19.219  45.851 -26.230  1.00  0.00    -0.295 OA
HETATM   40  H29 UNL     1     -19.622  46.585 -26.744  1.00  0.00     0.232 HD
ENDBRANCH  36  39
ENDBRANCH  10  36
TORSDOF 8
ENDMDL
