MODEL 1
REMARK minimizedAffinity -9.62269974
REMARK  7 active torsions:
REMARK  status: ('A' for Active; 'I' for Inactive)
REMARK    1  A    between atoms: C2_2  and  C30_32 
REMARK    2  A    between atoms: C3_3  and  C4_4 
REMARK    3  A    between atoms: C4_4  and  O1_5 
REMARK    4  A    between atoms: C4_4  and  C5_6 
REMARK    5  A    between atoms: C5_6  and  C6_7 
REMARK    6  A    between atoms: C6_7  and  C8_9 
REMARK    7  A    between atoms: C30_32  and  O4_34 
ROOT
HETATM    1  C8  UNL     1       0.737   8.144  13.136  1.00  0.00    -0.002 C 
HETATM    2  C9  UNL     1       0.817   8.958  14.450  1.00  0.00     0.006 C 
HETATM    3  C10 UNL     1      -0.533   8.770  15.172  1.00  0.00     0.011 C 
HETATM    4  C11 UNL     1      -1.212   7.581  14.460  1.00  0.00    -0.032 C 
HETATM    5  C12 UNL     1      -0.619   6.282  15.093  1.00  0.00     0.016 C 
HETATM    6  C13 UNL     1      -2.761   7.558  14.559  1.00  0.00     0.004 C 
HETATM    7  C14 UNL     1      -3.295   7.139  15.939  1.00  0.00     0.007 C 
HETATM    8  C15 UNL     1      -4.814   7.274  15.966  1.00  0.00     0.007 C 
HETATM    9  C16 UNL     1      -5.472   6.226  15.056  1.00  0.00     0.010 C 
HETATM   10  C17 UNL     1      -7.029   6.326  14.956  1.00  0.00     0.018 C 
HETATM   11  C18 UNL     1      -7.675   5.480  16.068  1.00  0.00     0.023 C 
HETATM   12  C19 UNL     1      -7.558   7.767  15.080  1.00  0.00     0.023 C 
HETATM   13  C20 UNL     1      -7.524   5.753  13.615  1.00  0.00     0.135 C 
HETATM   14  O2  UNL     1      -8.589   6.114  13.109  1.00  0.00    -0.297 OA
HETATM   15  C21 UNL     1      -6.743   4.628  12.972  1.00  0.00     0.080 C 
HETATM   16  C22 UNL     1      -5.233   4.831  12.990  1.00  0.00     0.018 C 
HETATM   17  C23 UNL     1      -4.828   6.124  13.672  1.00  0.00    -0.026 A 
HETATM   18  C24 UNL     1      -4.667   7.339  12.802  1.00  0.00     0.021 A 
HETATM   19  C25 UNL     1      -3.417   6.725  13.424  1.00  0.00    -0.027 A 
HETATM   20  C26 UNL     1      -2.474   5.958  12.486  1.00  0.00     0.011 C 
HETATM   21  C27 UNL     1      -1.120   6.606  12.138  1.00  0.00     0.011 C 
HETATM   22  C28 UNL     1      -0.785   7.849  12.969  1.00  0.00    -0.032 C 
HETATM   23  C29 UNL     1      -1.507   9.061  12.323  1.00  0.00     0.016 C 
ENDROOT
BRANCH   1  24
HETATM   24  C6  UNL     1       1.640   8.590  11.949  1.00  0.00    -0.011 C 
HETATM   25  C7  UNL     1       0.869   8.402  10.628  1.00  0.00     0.010 C 
BRANCH  24  26
HETATM   26  C5  UNL     1       3.100   8.094  11.788  1.00  0.00     0.040 C 
BRANCH  26  27
HETATM   27  C4  UNL     1       3.671   7.816  10.391  1.00  0.00     0.142 C 
BRANCH  27  28
HETATM   28  C3  UNL     1       3.858   6.336  10.183  1.00  0.00     0.018 C 
HETATM   29  C2  UNL     1       3.448   5.581   9.143  1.00  0.00     0.010 C 
HETATM   30  C1  UNL     1       2.671   6.064   7.954  1.00  0.00     0.055 C 
BRANCH  29  31
HETATM   31  C30 UNL     1       3.764   4.126   9.097  1.00  0.00     0.171 C 
HETATM   32  O3  UNL     1       4.608   3.610   8.384  1.00  0.00    -0.646 OA
BRANCH  31  33
HETATM   33  O4  UNL     1       3.038   3.383   9.946  1.00  0.00    -0.773 OA
HETATM   34  H46 UNL     1       3.362   2.470   9.792  1.00  0.00     0.167 HD
ENDBRANCH  31  33
ENDBRANCH  29  31
ENDBRANCH  27  28
BRANCH  27  35
HETATM   35  O1  UNL     1       4.950   8.421  10.246  1.00  0.00    -0.392 OA
HETATM   36  H6  UNL     1       5.368   8.033   9.459  1.00  0.00     0.210 HD
ENDBRANCH  27  35
ENDBRANCH  26  27
ENDBRANCH  24  26
ENDBRANCH   1  24
TORSDOF 7
ENDMDL
