MODEL 1
REMARK minimizedAffinity -7.908813
REMARK CNNscore 0.379564404
REMARK CNNaffinity 7.05964422
REMARK  19 active torsions:
REMARK  status: ('A' for Active; 'I' for Inactive)
REMARK    1  A    between atoms: O1_2  and  C2_3 
REMARK    2  A    between atoms: C2_3  and  C3_4 
REMARK    3  A    between atoms: C2_3  and  C28_36 
REMARK    4  A    between atoms: C3_4  and  C4_5 
REMARK    5  A    between atoms: C4_5  and  C6_7 
REMARK    6  A    between atoms: C6_7  and  O2_8 
REMARK    7  A    between atoms: C6_7  and  C7_9 
REMARK    8  A    between atoms: C8_10  and  C9_11 
REMARK    9  A    between atoms: C10_12  and  C11_13 
REMARK   10  A    between atoms: C11_13  and  N1_14 
REMARK       I    between atoms: N1_14  and  C12_15 
REMARK   11  A    between atoms: C12_15  and  C13_17 
REMARK   12  A    between atoms: C13_17  and  C16_20 
REMARK   13  A    between atoms: C16_20  and  O4_21 
REMARK   14  A    between atoms: C16_20  and  C17_22 
REMARK   15  A    between atoms: C19_24  and  C20_25 
REMARK   16  A    between atoms: C21_26  and  C22_27 
REMARK   17  A    between atoms: C23_28  and  C24_29 
REMARK   18  A    between atoms: C26_31  and  N2_33 
REMARK   19  A    between atoms: C28_36  and  O7_37 
ROOT
HETATM    1  C9  UNL     1       6.309   7.536  13.238  1.00  0.00    -0.003 C 
HETATM    2  C10 UNL     1       6.126   7.485  11.911  1.00  0.00    -0.007 C 
ENDROOT
BRANCH   1   3
HETATM    3  C8  UNL     1       6.471   8.769  13.972  1.00  0.00    -0.002 C 
HETATM    4  C7  UNL     1       7.666   9.170  14.421  1.00  0.00     0.005 C 
BRANCH   4   5
HETATM    5  C6  UNL     1       7.895  10.483  15.115  1.00  0.00     0.144 C 
BRANCH   5   6
HETATM    6  C4  UNL     1       8.523  10.304  16.520  1.00  0.00     0.016 C 
HETATM    7  C5  UNL     1       9.445   9.078  16.631  1.00  0.00     0.013 C 
BRANCH   6   8
HETATM    8  C3  UNL     1       9.174  11.598  17.072  1.00  0.00     0.042 C 
BRANCH   8   9
HETATM    9  C2  UNL     1      10.137  11.489  18.292  1.00  0.00     0.159 C 
BRANCH   9  10
HETATM   10  O1  UNL     1      11.385  12.093  17.919  1.00  0.00    -0.388 OA
HETATM   11  C1  UNL     1      11.745  11.984  16.547  1.00  0.00     0.202 C 
ENDBRANCH   9  10
BRANCH   9  12
HETATM   12  C28 UNL     1       9.579  12.303  19.498  1.00  0.00     0.133 C 
HETATM   13  C29 UNL     1      10.529  13.378  20.109  1.00  0.00     0.114 C 
HETATM   14  C30 UNL     1      11.257  14.278  19.118  1.00  0.00     0.023 C 
HETATM   15  C31 UNL     1       9.574  14.210  20.945  1.00  0.00     0.227 C 
HETATM   16  O8  UNL     1       9.896  14.929  21.874  1.00  0.00    -0.273 OA
HETATM   17  N3  UNL     1       8.303  14.052  20.420  1.00  0.00    -0.332 N 
HETATM   18  C32 UNL     1       7.118  14.469  21.129  1.00  0.00     0.154 C 
HETATM   19  C33 UNL     1       8.275  13.099  19.260  1.00  0.00     0.183 C 
HETATM   20  C34 UNL     1       6.997  12.229  19.025  1.00  0.00     0.294 C 
HETATM   21  C35 UNL     1       7.720  13.831  17.977  1.00  0.00     0.169 C 
HETATM   22  O9  UNL     1       6.389  11.346  19.587  1.00  0.00    -0.262 OA
HETATM   23  O10 UNL     1       6.722  12.786  17.812  1.00  0.00    -0.311 OA
HETATM   24  C36 UNL     1       8.444  14.104  16.675  1.00  0.00     0.043 C 
BRANCH  12  25
HETATM   25  O7  UNL     1       9.372  11.358  20.589  1.00  0.00    -0.383 OA
HETATM   26  H42 UNL     1       8.604  10.784  20.367  1.00  0.00     0.210 HD
ENDBRANCH  12  25
ENDBRANCH   9  12
ENDBRANCH   8   9
ENDBRANCH   6   8
ENDBRANCH   5   6
BRANCH   5  27
HETATM   27  O2  UNL     1       6.623  11.116  15.222  1.00  0.00    -0.391 OA
HETATM   28  H12 UNL     1       6.054  10.566  15.785  1.00  0.00     0.210 HD
ENDBRANCH   5  27
ENDBRANCH   4   5
ENDBRANCH   1   3
BRANCH   2  29
HETATM   29  C11 UNL     1       5.975   6.260  11.055  1.00  0.00     0.149 C 
BRANCH  29  30
HETATM   30  N1  UNL     1       4.687   6.211  10.412  1.00  0.00    -0.357 N 
HETATM   31  C12 UNL     1       4.113   7.333   9.864  1.00  0.00     0.228 C 
HETATM   32  O3  UNL     1       4.686   8.419   9.897  1.00  0.00    -0.273 OA
HETATM   33  H19 UNL     1       4.108   5.399  10.578  1.00  0.00     0.162 HD
BRANCH  31  34
HETATM   34  C13 UNL     1       2.791   7.117   9.101  1.00  0.00     0.063 C 
HETATM   35  C14 UNL     1       2.847   5.876   8.189  1.00  0.00     0.028 C 
HETATM   36  C15 UNL     1       2.592   8.375   8.222  1.00  0.00     0.028 C 
BRANCH  34  37
HETATM   37  C16 UNL     1       1.579   7.003  10.086  1.00  0.00     0.164 C 
BRANCH  37  38
HETATM   38  O4  UNL     1       1.103   5.659  10.212  1.00  0.00    -0.390 OA
HETATM   39  H27 UNL     1       0.922   5.338   9.304  1.00  0.00     0.210 HD
ENDBRANCH  37  38
BRANCH  37  40
HETATM   40  C17 UNL     1       0.387   7.934   9.857  1.00  0.00    -0.054 C 
HETATM   41  C18 UNL     1       0.050   8.261   8.420  1.00  0.00     0.046 C 
HETATM   42  C19 UNL     1      -0.388   8.466  10.832  1.00  0.00     0.005 C 
BRANCH  42  43
HETATM   43  C20 UNL     1      -0.252   8.287  12.267  1.00  0.00     0.000 C 
HETATM   44  C21 UNL     1      -1.162   7.775  13.115  1.00  0.00     0.000 C 
BRANCH  44  45
HETATM   45  C22 UNL     1      -2.490   7.289  12.806  1.00  0.00     0.001 C 
HETATM   46  C23 UNL     1      -3.069   6.293  13.495  1.00  0.00     0.009 C 
BRANCH  46  47
HETATM   47  C24 UNL     1      -4.407   5.735  13.253  1.00  0.00    -0.034 C 
HETATM   48  C25 UNL     1      -5.567   6.681  13.515  1.00  0.00     0.050 C 
HETATM   49  C26 UNL     1      -4.547   4.437  12.884  1.00  0.00     0.082 C 
HETATM   50  C27 UNL     1      -3.532   3.381  12.597  1.00  0.00     0.075 C 
BRANCH  49  51
HETATM   51  N2  UNL     1      -5.887   3.944  12.662  1.00  0.00    -0.120 N 
HETATM   52  O5  UNL     1      -6.598   3.765  13.660  1.00  0.00    -0.532 OA
HETATM   53  O6  UNL     1      -6.225   3.763  11.485  1.00  0.00    -0.532 OA
ENDBRANCH  49  51
ENDBRANCH  46  47
ENDBRANCH  44  45
ENDBRANCH  42  43
ENDBRANCH  37  40
ENDBRANCH  34  37
ENDBRANCH  31  34
ENDBRANCH  29  30
ENDBRANCH   2  29
TORSDOF 19
ENDMDL
