MODEL 1
REMARK minimizedAffinity -8.43705273
REMARK  10 active torsions:
REMARK  status: ('A' for Active; 'I' for Inactive)
REMARK    1  A    between atoms: C2_2  and  C3_4 
REMARK    2  A    between atoms: C10_12  and  O3_13 
REMARK    3  A    between atoms: C13_16  and  C14_17 
REMARK    4  A    between atoms: C14_17  and  C16_19 
REMARK    5  A    between atoms: C16_19  and  C17_20 
REMARK    6  A    between atoms: C17_20  and  C18_21 
REMARK    7  A    between atoms: C26_29  and  C27_30 
REMARK    8  A    between atoms: C27_30  and  C28_31 
REMARK    9  A    between atoms: C28_31  and  C29_32 
REMARK   10  A    between atoms: C29_32  and  O4_33 
ROOT
HETATM    1  C3  UNL     1      -6.106   6.524  14.672  1.00  0.00     0.151 A 
HETATM    2  O2  UNL     1      -7.060   7.425  14.044  1.00  0.00    -0.360 OA
HETATM    3  C4  UNL     1      -5.745   7.923  14.226  1.00  0.00     0.166 A 
HETATM    4  C5  UNL     1      -4.991   8.094  12.953  1.00  0.00     0.041 C 
HETATM    5  C6  UNL     1      -3.797   7.130  12.832  1.00  0.00     0.006 C 
HETATM    6  C7  UNL     1      -4.145   5.610  13.215  1.00  0.00    -0.030 C 
HETATM    7  C8  UNL     1      -3.939   4.680  11.985  1.00  0.00     0.016 C 
HETATM    8  C9  UNL     1      -3.159   5.069  14.298  1.00  0.00     0.042 C 
HETATM    9  C10 UNL     1      -1.644   5.379  14.139  1.00  0.00     0.128 C 
HETATM   10  C11 UNL     1      -1.295   6.676  13.352  1.00  0.00    -0.006 C 
HETATM   11  C12 UNL     1      -0.985   6.321  11.858  1.00  0.00     0.019 C 
HETATM   12  C13 UNL     1      -0.079   7.544  13.852  1.00  0.00     0.001 C 
HETATM   13  C22 UNL     1      -0.410   8.952  13.262  1.00  0.00     0.007 C 
HETATM   14  C23 UNL     1      -1.891   8.940  12.835  1.00  0.00     0.011 C 
HETATM   15  C24 UNL     1      -2.488   7.693  13.513  1.00  0.00    -0.029 C 
HETATM   16  C25 UNL     1      -2.758   8.129  14.990  1.00  0.00     0.016 C 
HETATM   17  C26 UNL     1      -5.652   5.382  13.754  1.00  0.00     0.039 C 
ENDROOT
BRANCH  12  18
HETATM   18  C14 UNL     1       1.392   7.112  13.539  1.00  0.00    -0.013 C 
HETATM   19  C15 UNL     1       2.407   8.136  14.063  1.00  0.00     0.010 C 
BRANCH  18  20
HETATM   20  C16 UNL     1       1.564   6.901  12.008  1.00  0.00     0.008 C 
BRANCH  20  21
HETATM   21  C17 UNL     1       2.270   8.020  11.226  1.00  0.00     0.028 C 
BRANCH  21  22
HETATM   22  C18 UNL     1       2.450   7.724   9.763  1.00  0.00    -0.025 C 
HETATM   23  C19 UNL     1       1.556   7.908   8.771  1.00  0.00    -0.091 C 
HETATM   24  C20 UNL     1       0.142   8.390   8.967  1.00  0.00     0.042 C 
HETATM   25  C21 UNL     1       1.920   7.610   7.339  1.00  0.00     0.042 C 
ENDBRANCH  21  22
ENDBRANCH  20  21
ENDBRANCH  18  20
ENDBRANCH  12  18
BRANCH   9  26
HETATM   26  O3  UNL     1      -1.103   5.440  15.463  1.00  0.00    -0.395 OA
HETATM   27  H14 UNL     1      -1.198   4.556  15.864  1.00  0.00     0.210 HD
ENDBRANCH   9  26
BRANCH  17  28
HETATM   28  C27 UNL     1      -6.717   5.080  12.651  1.00  0.00     0.011 C 
BRANCH  28  29
HETATM   29  C28 UNL     1      -7.876   4.199  13.143  1.00  0.00     0.027 C 
BRANCH  29  30
HETATM   30  C29 UNL     1      -7.434   2.758  13.385  1.00  0.00     0.164 C 
BRANCH  30  31
HETATM   31  O4  UNL     1      -8.170   1.865  12.557  1.00  0.00    -0.401 OA
HETATM   32  H48 UNL     1      -7.792   0.978  12.698  1.00  0.00     0.209 HD
ENDBRANCH  30  31
ENDBRANCH  29  30
ENDBRANCH  28  29
ENDBRANCH  17  28
BRANCH   1  33
HETATM   33  C2  UNL     1      -6.492   6.244  16.093  1.00  0.00     0.160 C 
HETATM   34  C1  UNL     1      -7.586   7.088  16.683  1.00  0.00     0.094 C 
HETATM   35  O1  UNL     1      -5.923   5.373  16.750  1.00  0.00    -0.295 OA
ENDBRANCH   1  33
TORSDOF 10
ENDMDL
