MODEL 1
REMARK minimizedAffinity -9.09494591
REMARK CNNscore 0.530121922
REMARK CNNaffinity 7.33985138
REMARK  15 active torsions:
REMARK  status: ('A' for Active; 'I' for Inactive)
REMARK    1  A    between atoms: C2_2  and  C3_3 
REMARK    2  A    between atoms: C2_2  and  C4_6 
REMARK    3  A    between atoms: C3_3  and  O2_5 
REMARK    4  A    between atoms: C4_6  and  C5_8 
REMARK    5  A    between atoms: C5_8  and  O4_9 
REMARK    6  A    between atoms: C5_8  and  C6_10 
REMARK    7  A    between atoms: C6_10  and  C7_11 
REMARK    8  A    between atoms: C7_11  and  C9_13 
REMARK    9  A    between atoms: C11_15  and  O5_16 
REMARK   10  A    between atoms: C14_19  and  O6_20 
REMARK   11  A    between atoms: C21_28  and  C22_29 
REMARK   12  A    between atoms: C22_29  and  C23_30 
REMARK   13  A    between atoms: C23_30  and  O8_31 
REMARK   14  A    between atoms: C33_42  and  C34_43 
REMARK   15  A    between atoms: C35_44  and  C36_45 
ROOT
HETATM    1  C9  UNL     1      -5.359  46.535 -20.457  1.00  0.00     0.002 C 
HETATM    2  C10 UNL     1      -4.890  46.638 -18.971  1.00  0.00     0.049 C 
HETATM    3  C11 UNL     1      -4.223  48.023 -18.763  1.00  0.00     0.088 C 
HETATM    4  C12 UNL     1      -2.743  47.926 -18.447  1.00  0.00     0.011 C 
HETATM    5  C13 UNL     1      -1.881  48.901 -18.801  1.00  0.00     0.015 C 
HETATM    6  C14 UNL     1      -2.358  50.174 -19.479  1.00  0.00     0.108 C 
HETATM    7  C15 UNL     1      -3.362  49.772 -20.545  1.00  0.00    -0.018 C 
HETATM    8  C16 UNL     1      -3.216  50.079 -21.855  1.00  0.00     0.003 C 
HETATM    9  C17 UNL     1      -4.261  49.520 -22.811  1.00  0.00     0.157 C 
HETATM   10  O7  UNL     1      -4.548  50.126 -23.843  1.00  0.00    -0.293 OA
HETATM   11  C18 UNL     1      -4.958  48.199 -22.487  1.00  0.00     0.094 C 
HETATM   12  C19 UNL     1      -4.473  47.608 -21.159  1.00  0.00    -0.018 C 
HETATM   13  C20 UNL     1      -3.072  46.951 -21.422  1.00  0.00     0.017 C 
HETATM   14  C21 UNL     1      -4.490  48.797 -20.101  1.00  0.00     0.032 C 
HETATM   15  C24 UNL     1      -2.032  50.838 -22.460  1.00  0.00    -0.007 C 
HETATM   16  C25 UNL     1      -1.536  50.002 -23.685  1.00  0.00     0.021 C 
HETATM   17  C26 UNL     1      -2.497  52.251 -22.881  1.00  0.00     0.022 C 
HETATM   18  C27 UNL     1      -1.478  52.994 -23.729  1.00  0.00     0.080 C 
HETATM   19  C28 UNL     1      -0.063  52.581 -23.413  1.00  0.00     0.135 C 
HETATM   20  O9  UNL     1       0.814  52.703 -24.271  1.00  0.00    -0.297 OA
HETATM   21  C29 UNL     1       0.247  52.110 -21.981  1.00  0.00     0.018 C 
HETATM   22  C30 UNL     1       1.664  51.493 -21.978  1.00  0.00     0.023 C 
HETATM   23  C31 UNL     1       0.299  53.433 -21.187  1.00  0.00     0.023 C 
HETATM   24  C32 UNL     1      -0.803  50.998 -21.469  1.00  0.00     0.025 C 
HETATM   25  C33 UNL     1      -1.262  51.188 -19.981  1.00  0.00     0.057 C 
ENDROOT
BRANCH   1  26
HETATM   26  C7  UNL     1      -5.363  45.053 -20.963  1.00  0.00    -0.011 C 
HETATM   27  C8  UNL     1      -6.654  44.699 -21.705  1.00  0.00     0.010 C 
BRANCH  26  28
HETATM   28  C6  UNL     1      -5.149  44.078 -19.763  1.00  0.00     0.044 C 
BRANCH  28  29
HETATM   29  C5  UNL     1      -6.349  43.207 -19.351  1.00  0.00     0.188 C 
BRANCH  29  30
HETATM   30  C4  UNL     1      -5.991  41.714 -19.177  1.00  0.00     0.169 C 
HETATM   31  O3  UNL     1      -6.690  40.829 -19.677  1.00  0.00    -0.294 OA
BRANCH  30  32
HETATM   32  C2  UNL     1      -4.817  41.385 -18.273  1.00  0.00     0.152 C 
HETATM   33  C1  UNL     1      -5.254  40.352 -17.238  1.00  0.00     0.029 C 
BRANCH  32  34
HETATM   34  C3  UNL     1      -3.618  40.899 -19.041  1.00  0.00     0.150 C 
HETATM   35  O1  UNL     1      -2.456  41.238 -18.887  1.00  0.00    -0.649 OA
BRANCH  34  36
HETATM   36  O2  UNL     1      -3.950  40.045 -20.030  1.00  0.00    -0.776 OA
HETATM   37  H5  UNL     1      -3.089  39.790 -20.425  1.00  0.00     0.167 HD
ENDBRANCH  34  36
ENDBRANCH  32  34
ENDBRANCH  30  32
ENDBRANCH  29  30
BRANCH  29  38
HETATM   38  O4  UNL     1      -6.997  43.811 -18.243  1.00  0.00    -0.388 OA
HETATM   39  H7  UNL     1      -7.952  43.642 -18.320  1.00  0.00     0.210 HD
ENDBRANCH  29  38
ENDBRANCH  28  29
ENDBRANCH  26  28
ENDBRANCH   1  26
BRANCH   3  40
HETATM   40  O5  UNL     1      -4.815  48.673 -17.645  1.00  0.00    -0.385 OA
HETATM   41  H17 UNL     1      -4.336  48.409 -16.842  1.00  0.00     0.211 HD
ENDBRANCH   3  40
BRANCH  14  42
HETATM   42  C22 UNL     1      -5.798  49.706 -20.023  1.00  0.00     0.044 C 
BRANCH  42  43
HETATM   43  C23 UNL     1      -7.079  49.429 -20.814  1.00  0.00     0.165 C 
BRANCH  43  44
HETATM   44  O8  UNL     1      -7.291  50.349 -21.864  1.00  0.00    -0.401 OA
HETATM   45  H30 UNL     1      -7.999  49.995 -22.428  1.00  0.00     0.209 HD
ENDBRANCH  43  44
ENDBRANCH  42  43
ENDBRANCH  14  42
BRANCH   6  46
HETATM   46  O6  UNL     1      -3.027  50.894 -18.431  1.00  0.00    -0.380 OA
HETATM   47  H20 UNL     1      -3.921  51.120 -18.725  1.00  0.00     0.211 HD
ENDBRANCH   6  46
BRANCH  25  48
HETATM   48  C34 UNL     1      -0.074  51.210 -19.017  1.00  0.00    -0.017 C 
HETATM   49  C35 UNL     1      -0.074  51.853 -17.838  1.00  0.00     0.008 C 
BRANCH  49  50
HETATM   50  C36 UNL     1       1.070  51.872 -16.917  1.00  0.00    -0.036 A 
HETATM   51  C37 UNL     1       2.190  52.651 -17.238  1.00  0.00     0.011 A 
HETATM   52  C38 UNL     1       3.285  52.713 -16.374  1.00  0.00     0.001 A 
HETATM   53  C39 UNL     1       3.268  52.005 -15.173  1.00  0.00     0.000 A 
HETATM   54  C40 UNL     1       2.156  51.238 -14.837  1.00  0.00     0.001 A 
HETATM   55  C41 UNL     1       1.058  51.175 -15.702  1.00  0.00     0.011 A 
ENDBRANCH  49  50
ENDBRANCH  25  48
TORSDOF 15
ENDMDL
