MODEL 1
REMARK minimizedAffinity -10.0130453
REMARK CNNscore 0.419361949
REMARK CNNaffinity 6.63944674
REMARK  11 active torsions:
REMARK  status: ('A' for Active; 'I' for Inactive)
REMARK    1  A    between atoms: C3_3  and  O1_4 
REMARK    2  A    between atoms: N1_14  and  O2_16 
REMARK    3  A    between atoms: O2_16  and  C13_17 
REMARK    4  A    between atoms: C13_17  and  C14_18 
REMARK       I    between atoms: C14_18  and  N2_20 
REMARK    5  A    between atoms: N2_20  and  C15_21 
REMARK    6  A    between atoms: C15_21  and  C16_22 
REMARK    7  A    between atoms: C15_21  and  C17_25 
REMARK    8  A    between atoms: C16_22  and  O5_24 
REMARK    9  A    between atoms: C17_25  and  O6_26 
REMARK   10  A    between atoms: C17_25  and  C18_27 
REMARK   11  A    between atoms: C22_31  and  N3_32 
ROOT
HETATM    1  C1  UNL     1      -6.428  47.668 -21.897  1.00  0.00     0.015 C 
HETATM    2  C2  UNL     1      -6.070  48.500 -22.687  1.00  0.00    -0.078 C 
HETATM    3  C3  UNL     1      -5.653  49.514 -23.682  1.00  0.00     0.128 C 
HETATM    4  C4  UNL     1      -4.994  48.819 -24.881  1.00  0.00     0.052 C 
HETATM    5  C5  UNL     1      -3.562  48.602 -24.413  1.00  0.00     0.010 C 
HETATM    6  C6  UNL     1      -3.202  49.932 -23.742  1.00  0.00     0.002 C 
HETATM    7  C7  UNL     1      -1.991  49.914 -22.780  1.00  0.00    -0.004 C 
HETATM    8  C8  UNL     1      -1.860  48.689 -21.858  1.00  0.00     0.010 C 
HETATM    9  C9  UNL     1      -0.612  48.767 -20.975  1.00  0.00     0.035 C 
HETATM   10  C10 UNL     1      -0.450  50.081 -20.250  1.00  0.00    -0.069 C 
HETATM   11  C11 UNL     1      -0.115  50.092 -18.947  1.00  0.00     0.030 C 
HETATM   12  C12 UNL     1       0.228  51.354 -18.236  1.00  0.00     0.032 C 
HETATM   13  N1  UNL     1       0.476  51.286 -16.958  1.00  0.00    -0.271 N 
ATOM     14  H1  UNL     1       0.415  50.431 -16.406  1.00  0.00     0.194 HD
HETATM   15  C24 UNL     1       0.339  52.620 -19.065  1.00  0.00     0.060 C 
HETATM   16  C25 UNL     1      -0.700  52.613 -20.177  1.00  0.00     0.020 C 
HETATM   17  C26 UNL     1      -0.631  51.346 -21.085  1.00  0.00    -0.016 C 
HETATM   18  C27 UNL     1       0.604  51.505 -22.010  1.00  0.00     0.020 C 
HETATM   19  C28 UNL     1      -1.942  51.228 -21.958  1.00  0.00     0.002 C 
HETATM   20  C29 UNL     1      -3.248  51.423 -21.141  1.00  0.00     0.007 C 
HETATM   21  C30 UNL     1      -4.488  50.690 -21.656  1.00  0.00     0.014 C 
HETATM   22  C31 UNL     1      -4.542  50.517 -23.184  1.00  0.00     0.003 C 
HETATM   23  C32 UNL     1      -4.774  51.921 -23.810  1.00  0.00     0.020 C 
ENDROOT
BRANCH   3  24
HETATM   24  O1  UNL     1      -6.826  50.190 -24.122  1.00  0.00    -0.377 OA
HETATM   25  H2  UNL     1      -7.487  49.507 -24.328  1.00  0.00     0.211 HD
ENDBRANCH   3  24
BRANCH  13  26
HETATM   26  O2  UNL     1       0.838  52.536 -16.440  1.00  0.00    -0.271 OA
BRANCH  26  27
HETATM   27  C13 UNL     1       2.197  52.809 -16.769  1.00  0.00     0.303 C 
BRANCH  27  28
HETATM   28  C14 UNL     1       3.118  52.342 -15.646  1.00  0.00     0.244 C 
HETATM   29  O3  UNL     1       4.337  52.253 -15.781  1.00  0.00    -0.271 OA
HETATM   30  N2  UNL     1       2.481  52.044 -14.465  1.00  0.00    -0.342 N 
HETATM   31  H16 UNL     1       1.466  52.002 -14.483  1.00  0.00     0.163 HD
BRANCH  30  32
HETATM   32  C15 UNL     1       3.178  51.426 -13.334  1.00  0.00     0.216 C 
BRANCH  32  33
HETATM   33  C16 UNL     1       3.624  49.996 -13.661  1.00  0.00     0.166 C 
HETATM   34  O4  UNL     1       4.781  49.604 -13.711  1.00  0.00    -0.648 OA
BRANCH  33  35
HETATM   35  O5  UNL     1       2.616  49.116 -13.848  1.00  0.00    -0.775 OA
HETATM   36  H18 UNL     1       3.059  48.281 -14.102  1.00  0.00     0.167 HD
ENDBRANCH  33  35
ENDBRANCH  32  33
BRANCH  32  37
HETATM   37  C17 UNL     1       2.272  51.347 -12.076  1.00  0.00     0.184 C 
BRANCH  37  38
HETATM   38  O6  UNL     1       1.011  50.725 -12.377  1.00  0.00    -0.388 OA
HETATM   39  H20 UNL     1       0.366  51.022 -11.712  1.00  0.00     0.210 HD
ENDBRANCH  37  38
BRANCH  37  40
HETATM   40  C18 UNL     1       2.008  52.700 -11.439  1.00  0.00    -0.025 A 
HETATM   41  C19 UNL     1       0.700  53.215 -11.400  1.00  0.00     0.010 A 
HETATM   42  C20 UNL     1       0.439  54.460 -10.819  1.00  0.00     0.003 A 
HETATM   43  C21 UNL     1       1.480  55.211 -10.269  1.00  0.00     0.036 A 
HETATM   44  C22 UNL     1       2.787  54.706 -10.303  1.00  0.00     0.103 A 
HETATM   45  C23 UNL     1       3.057  53.459 -10.886  1.00  0.00     0.045 A 
BRANCH  44  46
HETATM   46  N3  UNL     1       3.884  55.495  -9.726  1.00  0.00    -0.116 N 
HETATM   47  O7  UNL     1       3.738  56.724  -9.659  1.00  0.00    -0.532 OA
HETATM   48  O8  UNL     1       4.890  54.885  -9.334  1.00  0.00    -0.532 OA
ENDBRANCH  44  46
ENDBRANCH  37  40
ENDBRANCH  32  37
ENDBRANCH  30  32
ENDBRANCH  27  28
ENDBRANCH  26  27
ENDBRANCH  13  26
TORSDOF 11
ENDMDL
