MODEL 1
REMARK minimizedAffinity -7.58847952
REMARK CNNscore 0.719582379
REMARK CNNaffinity 6.59766245
REMARK  8 active torsions:
REMARK  status: ('A' for Active; 'I' for Inactive)
REMARK    1  A    between atoms: C2_2  and  C3_3 
REMARK    2  A    between atoms: C2_2  and  C9_12 
REMARK    3  A    between atoms: C3_3  and  C4_4 
REMARK    4  A    between atoms: C4_4  and  C5_5 
REMARK    5  A    between atoms: C6_6  and  C7_7 
REMARK    6  A    between atoms: C6_6  and  C8_9 
REMARK    7  A    between atoms: C7_7  and  O1_8 
REMARK    8  A    between atoms: C8_9  and  O3_11 
ROOT
HETATM    1  C9  UNL     1       5.937  55.998  -8.095  1.00  0.00    -0.002 C 
HETATM    2  C10 UNL     1       6.763  54.780  -8.599  1.00  0.00     0.006 C 
HETATM    3  C11 UNL     1       5.775  53.821  -9.305  1.00  0.00     0.011 C 
HETATM    4  C12 UNL     1       4.472  54.626  -9.445  1.00  0.00    -0.032 C 
HETATM    5  C13 UNL     1       4.627  55.506 -10.736  1.00  0.00     0.016 C 
HETATM    6  C14 UNL     1       3.157  53.803  -9.534  1.00  0.00     0.004 C 
HETATM    7  C15 UNL     1       3.126  52.816 -10.715  1.00  0.00     0.007 C 
HETATM    8  C16 UNL     1       1.763  52.162 -10.981  1.00  0.00     0.007 C 
HETATM    9  C17 UNL     1       0.631  52.564 -10.016  1.00  0.00     0.010 C 
HETATM   10  C18 UNL     1      -0.778  51.956 -10.374  1.00  0.00     0.018 C 
HETATM   11  C19 UNL     1      -1.415  51.294  -9.131  1.00  0.00     0.023 C 
HETATM   12  C20 UNL     1      -0.729  50.860 -11.460  1.00  0.00     0.023 C 
HETATM   13  C21 UNL     1      -1.741  53.060 -10.840  1.00  0.00     0.135 C 
HETATM   14  O4  UNL     1      -2.457  52.928 -11.837  1.00  0.00    -0.297 OA
HETATM   15  C22 UNL     1      -1.884  54.301  -9.986  1.00  0.00     0.080 C 
HETATM   16  C23 UNL     1      -0.674  54.546  -9.099  1.00  0.00     0.018 C 
HETATM   17  C24 UNL     1       0.587  54.092  -9.796  1.00  0.00    -0.026 A 
HETATM   18  C25 UNL     1       1.189  55.073 -10.783  1.00  0.00     0.021 A 
HETATM   19  C26 UNL     1       1.941  54.759  -9.499  1.00  0.00    -0.027 A 
HETATM   20  C27 UNL     1       1.984  55.844  -8.411  1.00  0.00     0.011 C 
HETATM   21  C28 UNL     1       3.361  56.494  -8.179  1.00  0.00     0.011 C 
HETATM   22  C29 UNL     1       4.480  55.445  -8.098  1.00  0.00    -0.032 C 
HETATM   23  C30 UNL     1       4.247  54.590  -6.816  1.00  0.00     0.016 C 
ENDROOT
BRANCH   1  24
HETATM   24  C2  UNL     1       6.454  56.716  -6.814  1.00  0.00    -0.014 C 
HETATM   25  C1  UNL     1       5.462  57.660  -6.126  1.00  0.00     0.010 C 
BRANCH  24  26
HETATM   26  C3  UNL     1       7.013  55.710  -5.767  1.00  0.00     0.008 C 
BRANCH  26  27
HETATM   27  C4  UNL     1       8.540  55.671  -5.639  1.00  0.00     0.028 C 
BRANCH  27  28
HETATM   28  C5  UNL     1       9.170  56.997  -5.294  1.00  0.00    -0.011 C 
HETATM   29  C6  UNL     1      10.416  57.238  -4.826  1.00  0.00     0.035 C 
BRANCH  29  30
HETATM   30  C7  UNL     1      11.480  56.223  -4.497  1.00  0.00     0.209 C 
BRANCH  30  31
HETATM   31  O1  UNL     1      12.686  56.459  -5.223  1.00  0.00    -0.396 OA
HETATM   32  H12 UNL     1      12.430  56.605  -6.152  1.00  0.00     0.209 HD
ENDBRANCH  30  31
ENDBRANCH  29  30
BRANCH  29  33
HETATM   33  C8  UNL     1      10.857  58.643  -4.615  1.00  0.00     0.173 C 
HETATM   34  O2  UNL     1      11.618  59.032  -3.743  1.00  0.00    -0.646 OA
BRANCH  33  35
HETATM   35  O3  UNL     1      10.295  59.518  -5.473  1.00  0.00    -0.773 OA
HETATM   36  H13 UNL     1      10.678  60.380  -5.208  1.00  0.00     0.167 HD
ENDBRANCH  33  35
ENDBRANCH  29  33
ENDBRANCH  27  28
ENDBRANCH  26  27
ENDBRANCH  24  26
ENDBRANCH   1  24
TORSDOF 8
ENDMDL
