MODEL 1
REMARK minimizedAffinity -6.77403593
REMARK CNNscore 0.672771752
REMARK CNNaffinity 7.06585646
REMARK  6 active torsions:
REMARK  status: ('A' for Active; 'I' for Inactive)
REMARK    1  A    between atoms: C2_2  and  C30_31 
REMARK    2  A    between atoms: C3_3  and  C4_4 
REMARK    3  A    between atoms: C4_4  and  C5_5 
REMARK    4  A    between atoms: C5_5  and  C6_6 
REMARK    5  A    between atoms: C6_6  and  C8_8 
REMARK    6  A    between atoms: C30_31  and  O3_33 
ROOT
HETATM    1  C8  UNL     1     -13.097 -13.341  27.062  1.00  0.00    -0.002 C 
HETATM    2  C9  UNL     1     -13.323 -12.807  25.626  1.00  0.00     0.007 C 
HETATM    3  C10 UNL     1     -13.828 -11.347  25.776  1.00  0.00     0.015 C 
HETATM    4  C11 UNL     1     -14.150 -11.189  27.281  1.00  0.00    -0.013 C 
HETATM    5  C12 UNL     1     -15.590 -11.767  27.474  1.00  0.00     0.021 C 
HETATM    6  C13 UNL     1     -14.125  -9.822  27.962  1.00  0.00    -0.070 C 
HETATM    7  C14 UNL     1     -13.874  -8.669  27.316  1.00  0.00    -0.022 C 
HETATM    8  C15 UNL     1     -13.671  -7.347  27.999  1.00  0.00     0.034 C 
HETATM    9  C16 UNL     1     -13.408  -7.496  29.517  1.00  0.00     0.013 C 
HETATM   10  C17 UNL     1     -13.146  -6.150  30.296  1.00  0.00     0.018 C 
HETATM   11  C18 UNL     1     -11.715  -6.165  30.885  1.00  0.00     0.023 C 
HETATM   12  C19 UNL     1     -13.248  -4.896  29.401  1.00  0.00     0.023 C 
HETATM   13  C20 UNL     1     -14.096  -5.963  31.493  1.00  0.00     0.135 C 
HETATM   14  O1  UNL     1     -14.540  -4.857  31.811  1.00  0.00    -0.297 OA
HETATM   15  C21 UNL     1     -14.414  -7.157  32.367  1.00  0.00     0.080 C 
HETATM   16  C22 UNL     1     -14.216  -8.497  31.674  1.00  0.00     0.017 C 
HETATM   17  C23 UNL     1     -14.472  -8.450  30.153  1.00  0.00    -0.031 C 
HETATM   18  C24 UNL     1     -15.929  -7.956  29.895  1.00  0.00     0.016 C 
HETATM   19  C25 UNL     1     -14.349  -9.884  29.488  1.00  0.00     0.024 C 
HETATM   20  C26 UNL     1     -13.316 -10.842  30.144  1.00  0.00     0.010 C 
HETATM   21  C27 UNL     1     -13.183 -12.207  29.425  1.00  0.00     0.011 C 
HETATM   22  C28 UNL     1     -12.973 -12.042  27.907  1.00  0.00    -0.029 C 
HETATM   23  C29 UNL     1     -11.577 -11.368  27.711  1.00  0.00     0.016 C 
ENDROOT
BRANCH   1  24
HETATM   24  C6  UNL     1     -12.040 -14.467  27.234  1.00  0.00    -0.014 C 
HETATM   25  C7  UNL     1     -12.287 -15.542  26.153  1.00  0.00     0.010 C 
BRANCH  24  26
HETATM   26  C5  UNL     1     -10.559 -14.033  27.172  1.00  0.00     0.008 C 
BRANCH  26  27
HETATM   27  C4  UNL     1      -9.972 -14.075  25.752  1.00  0.00     0.028 C 
BRANCH  27  28
HETATM   28  C3  UNL     1      -9.178 -12.848  25.390  1.00  0.00    -0.013 C 
HETATM   29  C2  UNL     1      -8.228 -12.730  24.442  1.00  0.00     0.008 C 
HETATM   30  C1  UNL     1      -7.534 -11.427  24.167  1.00  0.00     0.055 C 
BRANCH  29  31
HETATM   31  C30 UNL     1      -7.774 -13.900  23.657  1.00  0.00     0.171 C 
HETATM   32  O2  UNL     1      -8.244 -14.310  22.613  1.00  0.00    -0.646 OA
BRANCH  31  33
HETATM   33  O3  UNL     1      -6.731 -14.514  24.240  1.00  0.00    -0.773 OA
HETATM   34  H46 UNL     1      -6.530 -15.249  23.624  1.00  0.00     0.167 HD
ENDBRANCH  31  33
ENDBRANCH  29  31
ENDBRANCH  27  28
ENDBRANCH  26  27
ENDBRANCH  24  26
ENDBRANCH   1  24
TORSDOF 6
ENDMDL
