MODEL 1
REMARK minimizedAffinity -9.38269806
REMARK  7 active torsions:
REMARK  status: ('A' for Active; 'I' for Inactive)
REMARK    1  A    between atoms: C3_4  and  O2_5 
REMARK    2  A    between atoms: O2_5  and  C4_6 
REMARK    3  A    between atoms: C4_6  and  C5_7 
REMARK    4  A    between atoms: N1_15  and  C13_16 
REMARK    5  A    between atoms: N3_24  and  C19_25 
REMARK    6  A    between atoms: C19_25  and  C20_26 
REMARK    7  A    between atoms: C20_26  and  N4_27 
ROOT
HETATM    1  C13 UNL     1      -2.441   4.872  12.316  1.00  0.00     0.043 A 
HETATM    2  C14 UNL     1      -3.313   5.635  13.110  1.00  0.00     0.032 A 
HETATM    3  C15 UNL     1      -4.664   5.296  13.293  1.00  0.00     0.034 A 
HETATM    4  C16 UNL     1      -5.134   4.149  12.648  1.00  0.00     0.062 A 
HETATM    5  C17 UNL     1      -4.309   3.359  11.856  1.00  0.00     0.011 A 
HETATM    6  C18 UNL     1      -5.141   2.309  11.409  1.00  0.00     0.121 A 
HETATM    7  N2  UNL     1      -6.392   2.410  11.866  1.00  0.00    -0.308 N 
ATOM      8  H2  UNL     1      -7.178   1.784  11.697  1.00  0.00     0.186 HD
HETATM    9  N3  UNL     1      -6.366   3.541  12.606  1.00  0.00    -0.290 N 
HETATM   10  C25 UNL     1      -2.958   3.721  11.685  1.00  0.00     0.045 A 
ENDROOT
BRANCH   1  11
HETATM   11  N1  UNL     1      -1.055   5.255  12.127  1.00  0.00    -0.290 N 
HETATM   12  C1  UNL     1      -0.116   4.302  11.661  1.00  0.00     0.254 A 
HETATM   13  O1  UNL     1      -0.338   3.132  11.352  1.00  0.00    -0.268 OA
HETATM   14  C2  UNL     1       1.287   4.772  11.494  1.00  0.00     0.111 A 
HETATM   15  C3  UNL     1       1.622   6.030  11.792  1.00  0.00     0.075 A 
HETATM   16  C11 UNL     1       0.628   6.964  12.233  1.00  0.00     0.054 A 
HETATM   17  C12 UNL     1      -0.639   6.565  12.389  1.00  0.00     0.103 A 
BRANCH  15  18
HETATM   18  O2  UNL     1       2.892   6.525  11.614  1.00  0.00    -0.346 OA
BRANCH  18  19
HETATM   19  C4  UNL     1       3.561   5.922  10.495  1.00  0.00     0.214 C 
BRANCH  19  20
HETATM   20  C5  UNL     1       3.091   6.521   9.190  1.00  0.00    -0.034 A 
HETATM   21  C6  UNL     1       2.979   7.912   9.048  1.00  0.00     0.009 A 
HETATM   22  C7  UNL     1       2.548   8.469   7.844  1.00  0.00     0.001 A 
HETATM   23  C8  UNL     1       2.222   7.641   6.771  1.00  0.00     0.000 A 
HETATM   24  C9  UNL     1       2.327   6.257   6.900  1.00  0.00     0.001 A 
HETATM   25  C10 UNL     1       2.760   5.698   8.104  1.00  0.00     0.009 A 
ENDBRANCH  19  20
ENDBRANCH  18  19
ENDBRANCH  15  18
ENDBRANCH   1  11
BRANCH   9  26
HETATM   26  C19 UNL     1      -7.586   3.987  13.256  1.00  0.00     0.179 C 
BRANCH  26  27
HETATM   27  C20 UNL     1      -7.631   5.515  13.368  1.00  0.00     0.294 C 
BRANCH  27  28
HETATM   28  N4  UNL     1      -8.290   5.969  14.612  1.00  0.00     0.090 N 
HETATM   29  C21 UNL     1      -7.670   5.395  15.819  1.00  0.00     0.272 C 
HETATM   30  C22 UNL     1      -6.481   6.286  16.154  1.00  0.00     0.032 C 
HETATM   31  C23 UNL     1      -6.767   7.608  15.458  1.00  0.00     0.032 C 
HETATM   32  C24 UNL     1      -8.125   7.421  14.799  1.00  0.00     0.272 C 
ENDBRANCH  27  28
ENDBRANCH  26  27
ENDBRANCH   9  26
TORSDOF 7
ENDMDL
