MODEL 1
REMARK minimizedAffinity -9.36189938
REMARK CNNscore 0.712890029
REMARK CNNaffinity 7.25049353
REMARK  6 active torsions:
REMARK  status: ('A' for Active; 'I' for Inactive)
REMARK    1  A    between atoms: C12_13  and  C13_14 
REMARK    2  A    between atoms: C13_14  and  C15_16 
REMARK    3  A    between atoms: C15_16  and  C16_17 
REMARK    4  A    between atoms: C16_17  and  C17_18 
REMARK    5  A    between atoms: C18_19  and  C20_21 
REMARK    6  A    between atoms: C20_21  and  O3_23 
ROOT
HETATM    1  C1  UNL     1       0.036   4.442  12.404  1.00  0.00     0.052 C 
HETATM    2  C2  UNL     1      -1.393   3.972  12.357  1.00  0.00    -0.013 C 
HETATM    3  C3  UNL     1      -2.429   4.416  13.110  1.00  0.00    -0.066 C 
HETATM    4  C4  UNL     1      -2.252   5.475  14.180  1.00  0.00     0.036 C 
HETATM    5  C5  UNL     1      -3.293   6.583  14.069  1.00  0.00     0.010 C 
HETATM    6  C6  UNL     1      -4.698   5.992  14.212  1.00  0.00     0.007 C 
HETATM    7  C7  UNL     1      -4.963   4.971  13.071  1.00  0.00     0.068 C 
HETATM    8  C8  UNL     1      -6.383   4.396  13.247  1.00  0.00     0.133 C 
HETATM    9  O1  UNL     1      -6.617   3.187  13.237  1.00  0.00    -0.298 OA
HETATM   10  C9  UNL     1      -7.530   5.392  13.420  1.00  0.00     0.089 C 
HETATM   11  C10 UNL     1      -7.211   6.325  14.596  1.00  0.00    -0.026 C 
HETATM   12  C11 UNL     1      -7.192   5.457  15.896  1.00  0.00     0.016 C 
HETATM   13  C12 UNL     1      -8.148   7.552  14.832  1.00  0.00    -0.002 C 
HETATM   14  C21 UNL     1      -7.218   8.526  15.626  1.00  0.00     0.006 C 
HETATM   15  C22 UNL     1      -5.763   8.053  15.436  1.00  0.00     0.011 C 
HETATM   16  C23 UNL     1      -5.838   7.050  14.278  1.00  0.00    -0.032 C 
HETATM   17  C24 UNL     1      -5.849   7.902  12.965  1.00  0.00     0.016 C 
HETATM   18  C25 UNL     1      -3.864   3.865  12.989  1.00  0.00     0.027 C 
HETATM   19  C26 UNL     1      -4.037   3.074  11.674  1.00  0.00     0.018 C 
HETATM   20  C27 UNL     1      -2.907   2.092  11.457  1.00  0.00     0.084 C 
HETATM   21  C28 UNL     1      -1.605   2.838  11.393  1.00  0.00     0.155 C 
HETATM   22  O4  UNL     1      -0.713   2.496  10.618  1.00  0.00    -0.293 OA
ENDROOT
BRANCH  13  23
HETATM   23  C13 UNL     1      -9.528   7.370  15.537  1.00  0.00    -0.014 C 
HETATM   24  C14 UNL     1     -10.663   7.134  14.535  1.00  0.00     0.010 C 
BRANCH  23  25
HETATM   25  C15 UNL     1      -9.851   8.618  16.408  1.00  0.00     0.008 C 
BRANCH  25  26
HETATM   26  C16 UNL     1     -10.487   9.808  15.674  1.00  0.00     0.028 C 
BRANCH  26  27
HETATM   27  C17 UNL     1     -11.254   9.401  14.448  1.00  0.00    -0.013 C 
HETATM   28  C18 UNL     1     -12.108  10.163  13.734  1.00  0.00     0.008 C 
HETATM   29  C19 UNL     1     -12.496  11.575  14.053  1.00  0.00     0.055 C 
BRANCH  28  30
HETATM   30  C20 UNL     1     -12.730   9.526  12.544  1.00  0.00     0.171 C 
HETATM   31  O2  UNL     1     -13.537   8.614  12.544  1.00  0.00    -0.646 OA
BRANCH  30  32
HETATM   32  O3  UNL     1     -12.304  10.070  11.392  1.00  0.00    -0.773 OA
HETATM   33  H28 UNL     1     -12.783   9.557  10.708  1.00  0.00     0.167 HD
ENDBRANCH  30  32
ENDBRANCH  28  30
ENDBRANCH  26  27
ENDBRANCH  25  26
ENDBRANCH  23  25
ENDBRANCH  13  23
TORSDOF 6
ENDMDL
