MODEL 1
REMARK minimizedAffinity -7.85270786
REMARK CNNscore 0.658251762
REMARK CNNaffinity 6.83678865
REMARK  6 active torsions:
REMARK  status: ('A' for Active; 'I' for Inactive)
REMARK    1  A    between atoms: C3_3  and  C4_4 
REMARK    2  A    between atoms: C4_4  and  O2_6 
REMARK    3  A    between atoms: O2_6  and  C5_7 
REMARK    4  A    between atoms: C5_7  and  C6_8 
REMARK    5  A    between atoms: C6_8  and  C7_9 
REMARK    6  A    between atoms: C13_15  and  C14_16 
ROOT
HETATM    1  C1  UNL     1      -1.465  55.508 -10.199  1.00  0.00     0.069 C 
HETATM    2  C2  UNL     1      -1.242  54.057 -10.540  1.00  0.00     0.018 C 
HETATM    3  C3  UNL     1      -0.065  53.406 -10.397  1.00  0.00     0.052 C 
HETATM    4  C13 UNL     1       0.102  51.937 -10.773  1.00  0.00     0.104 C 
HETATM    5  C23 UNL     1      -1.242  51.277 -11.085  1.00  0.00     0.024 C 
HETATM    6  C24 UNL     1      -2.380  51.995 -11.194  1.00  0.00     0.020 C 
HETATM    7  C25 UNL     1      -3.724  51.371 -11.484  1.00  0.00     0.058 C 
HETATM    8  C26 UNL     1      -3.764  49.891 -11.125  1.00  0.00     0.014 C 
HETATM    9  C27 UNL     1      -2.570  49.155 -11.708  1.00  0.00     0.084 C 
HETATM   10  C28 UNL     1      -1.271  49.799 -11.279  1.00  0.00     0.158 C 
HETATM   11  O5  UNL     1      -0.244  49.134 -11.155  1.00  0.00    -0.293 OA
HETATM   12  N1  UNL     1      -2.353  53.364 -11.001  1.00  0.00    -0.362 N 
HETATM   13  H24 UNL     1      -3.240  53.863 -11.009  1.00  0.00     0.165 HD
ENDROOT
BRANCH   4  14
HETATM   14  C14 UNL     1       1.079  51.802 -11.933  1.00  0.00     0.029 A 
HETATM   15  C15 UNL     1       2.355  51.397 -11.836  1.00  0.00     0.154 A 
HETATM   16  O3  UNL     1       3.268  51.289 -12.858  1.00  0.00    -0.321 OA
HETATM   17  C16 UNL     1       2.869  51.680 -14.109  1.00  0.00     0.089 A 
HETATM   18  C17 UNL     1       3.817  51.624 -15.130  1.00  0.00     0.040 A 
HETATM   19  C21 UNL     1       1.572  52.113 -14.385  1.00  0.00     0.050 A 
HETATM   20  C18 UNL     1       3.462  52.003 -16.428  1.00  0.00     0.026 A 
HETATM   21  C19 UNL     1       2.161  52.436 -16.697  1.00  0.00     0.035 A 
HETATM   22 CL1  UNL     1       1.730  52.897 -18.298  1.00  0.00    -0.084 Cl
HETATM   23  C20 UNL     1       1.210  52.493 -15.681  1.00  0.00     0.042 A 
HETATM   24  C22 UNL     1       0.588  52.148 -13.291  1.00  0.00     0.194 A 
HETATM   25  O4  UNL     1      -0.583  52.422 -13.515  1.00  0.00    -0.287 OA
ENDBRANCH   4  14
BRANCH   3  26
HETATM   26  C4  UNL     1       1.131  54.097  -9.883  1.00  0.00     0.292 C 
HETATM   27  O1  UNL     1       1.504  54.045  -8.723  1.00  0.00    -0.259 OA
BRANCH  26  28
HETATM   28  O2  UNL     1       1.712  54.775 -10.902  1.00  0.00    -0.317 OA
BRANCH  28  29
HETATM   29  C5  UNL     1       2.591  55.832 -10.493  1.00  0.00     0.183 C 
BRANCH  29  30
HETATM   30  C6  UNL     1       4.023  55.415 -10.818  1.00  0.00     0.065 C 
BRANCH  30  31
HETATM   31  C7  UNL     1       4.937  55.543  -9.627  1.00  0.00    -0.056 A 
HETATM   32  C8  UNL     1       4.520  56.242  -8.485  1.00  0.00     0.007 A 
HETATM   33  C9  UNL     1       5.356  56.345  -7.373  1.00  0.00     0.001 A 
HETATM   34  C10 UNL     1       6.618  55.751  -7.393  1.00  0.00     0.000 A 
HETATM   35  C11 UNL     1       7.043  55.056  -8.524  1.00  0.00     0.001 A 
HETATM   36  C12 UNL     1       6.206  54.950  -9.637  1.00  0.00     0.007 A 
ENDBRANCH  30  31
ENDBRANCH  29  30
ENDBRANCH  28  29
ENDBRANCH  26  28
ENDBRANCH   3  26
TORSDOF 6
ENDMDL
