MODEL 1
REMARK minimizedAffinity -9.53347778
REMARK  4 active torsions:
REMARK  status: ('A' for Active; 'I' for Inactive)
REMARK    1  A    between atoms: C2_2  and  C4_4 
REMARK    2  A    between atoms: C4_4  and  C5_5 
REMARK    3  A    between atoms: C5_5  and  O1_6 
REMARK    4  A    between atoms: C8_9  and  C9_10 
ROOT
HETATM    1  C9  UNL     1      -3.287   7.805  13.309  1.00  0.00     0.001 C 
HETATM    2  C10 UNL     1      -3.208   9.340  13.404  1.00  0.00     0.007 C 
HETATM    3  C11 UNL     1      -2.043   9.660  14.347  1.00  0.00     0.011 C 
HETATM    4  C12 UNL     1      -1.277   8.336  14.575  1.00  0.00    -0.032 C 
HETATM    5  C13 UNL     1      -0.591   8.387  15.965  1.00  0.00     0.016 C 
HETATM    6  C14 UNL     1      -0.119   8.116  13.516  1.00  0.00     0.004 C 
HETATM    7  C15 UNL     1      -0.243   8.727  12.104  1.00  0.00     0.007 C 
HETATM    8  C16 UNL     1       1.087   8.662  11.319  1.00  0.00     0.007 C 
HETATM    9  C17 UNL     1       2.162   7.706  11.904  1.00  0.00     0.010 C 
HETATM   10  C18 UNL     1       3.349   7.430  10.933  1.00  0.00     0.018 C 
HETATM   11  C19 UNL     1       4.523   6.759  11.671  1.00  0.00     0.023 C 
HETATM   12  C20 UNL     1       3.884   8.739  10.319  1.00  0.00     0.023 C 
HETATM   13  C21 UNL     1       2.901   6.501   9.799  1.00  0.00     0.135 C 
HETATM   14  O2  UNL     1       3.480   6.477   8.712  1.00  0.00    -0.297 OA
HETATM   15  C22 UNL     1       1.701   5.617  10.031  1.00  0.00     0.080 C 
HETATM   16  C23 UNL     1       1.587   5.218  11.490  1.00  0.00     0.018 C 
HETATM   17  C24 UNL     1       1.490   6.420  12.416  1.00  0.00    -0.026 A 
HETATM   18  C25 UNL     1       1.554   6.134  13.905  1.00  0.00     0.021 A 
HETATM   19  C26 UNL     1       0.259   6.640  13.323  1.00  0.00    -0.027 A 
HETATM   20  C27 UNL     1      -0.909   5.690  13.197  1.00  0.00     0.011 C 
HETATM   21  C28 UNL     1      -1.906   5.852  14.329  1.00  0.00     0.011 C 
HETATM   22  C29 UNL     1      -2.446   7.282  14.518  1.00  0.00    -0.032 C 
HETATM   23  C30 UNL     1      -3.284   7.246  15.821  1.00  0.00     0.016 C 
ENDROOT
BRANCH   1  24
HETATM   24  C8  UNL     1      -4.705   7.219  13.058  1.00  0.00     0.014 C 
HETATM   25  C7  UNL     1      -5.710   7.886  14.021  1.00  0.00     0.010 C 
HETATM   26  C6  UNL     1      -7.032   7.129  14.031  1.00  0.00     0.041 C 
HETATM   27  C4  UNL     1      -6.859   5.649  14.467  1.00  0.00     0.085 C 
HETATM   28  O3  UNL     1      -5.473   5.251  14.325  1.00  0.00    -0.377 OA
HETATM   29  C31 UNL     1      -4.845   5.688  13.122  1.00  0.00     0.174 C 
BRANCH  27  30
HETATM   30  C2  UNL     1      -7.786   4.711  13.621  1.00  0.00     0.014 C 
HETATM   31  C1  UNL     1      -8.350   5.386  12.364  1.00  0.00     0.012 C 
HETATM   32  C3  UNL     1      -7.122   3.384  13.232  1.00  0.00     0.012 C 
ENDBRANCH  27  30
BRANCH  27  33
HETATM   33  C5  UNL     1      -7.147   5.500  15.987  1.00  0.00     0.202 C 
BRANCH  33  34
HETATM   34  O1  UNL     1      -8.297   4.679  16.206  1.00  0.00    -0.398 OA
HETATM   35  H10 UNL     1      -8.974   5.048  15.606  1.00  0.00     0.209 HD
ENDBRANCH  33  34
ENDBRANCH  27  33
ENDBRANCH   1  24
TORSDOF 4
ENDMDL
