MODEL 1
REMARK minimizedAffinity -7.27489805
REMARK CNNscore 0.607447505
REMARK CNNaffinity 7.41437149
REMARK  9 active torsions:
REMARK  status: ('A' for Active; 'I' for Inactive)
REMARK    1  A    between atoms: O1_2  and  C2_3 
REMARK    2  A    between atoms: C2_3  and  C3_4 
REMARK    3  A    between atoms: C3_4  and  N1_5 
REMARK       I    between atoms: N1_5  and  C4_6 
REMARK    4  A    between atoms: C4_6  and  C5_8 
REMARK    5  A    between atoms: C5_8  and  C7_10 
REMARK    6  A    between atoms: C15_20  and  C16_21 
REMARK    7  A    between atoms: C16_21  and  O3_22 
REMARK    8  A    between atoms: O3_22  and  C17_23 
REMARK    9  A    between atoms: C26_34  and  O4_35 
ROOT
HETATM    1  C7  UNL     1      -0.330  51.103 -12.290  1.00  0.00     0.027 C 
HETATM    2  C8  UNL     1      -0.630  49.650 -12.722  1.00  0.00     0.009 C 
HETATM    3  C9  UNL     1      -0.232  49.312 -14.158  1.00  0.00     0.010 C 
HETATM    4  C10 UNL     1      -0.480  50.443 -15.176  1.00  0.00    -0.033 C 
HETATM    5  C11 UNL     1      -2.006  50.716 -15.264  1.00  0.00     0.016 C 
HETATM    6  C12 UNL     1      -0.034  49.918 -16.582  1.00  0.00     0.058 C 
HETATM    7  C13 UNL     1       0.250  51.054 -17.492  1.00  0.00     0.008 A 
HETATM    8  C14 UNL     1       0.883  52.200 -17.080  1.00  0.00     0.027 A 
HETATM    9  N2  UNL     1       1.064  53.158 -18.051  1.00  0.00    -0.354 N 
ATOM     10  H2  UNL     1       1.488  54.074 -17.904  1.00  0.00     0.166 HD
HETATM   11  C15 UNL     1       0.602  52.704 -19.205  1.00  0.00     0.076 A 
HETATM   12  S1  UNL     1      -0.122  51.134 -19.140  1.00  0.00    -0.077 SA
HETATM   13  C23 UNL     1       1.339  52.371 -15.666  1.00  0.00     0.040 C 
HETATM   14  C24 UNL     1       2.733  51.760 -15.485  1.00  0.00     0.017 C 
HETATM   15  C25 UNL     1       0.246  51.782 -14.697  1.00  0.00     0.033 C 
HETATM   16  C26 UNL     1       0.737  51.715 -13.226  1.00  0.00     0.128 C 
ENDROOT
BRANCH   1  17
HETATM   17  C5  UNL     1       0.039  51.177 -10.777  1.00  0.00     0.080 C 
HETATM   18  C6  UNL     1      -0.218  49.859 -10.032  1.00  0.00     0.020 C 
BRANCH  17  19
HETATM   19  C4  UNL     1      -0.698  52.273 -10.007  1.00  0.00     0.222 C 
HETATM   20  N1  UNL     1      -0.058  53.499  -9.976  1.00  0.00    -0.359 N 
HETATM   21  H8  UNL     1       0.600  53.685 -10.722  1.00  0.00     0.162 HD
HETATM   22  O2  UNL     1      -1.805  52.087  -9.512  1.00  0.00    -0.273 OA
BRANCH  20  23
HETATM   23  C3  UNL     1      -0.766  54.671  -9.481  1.00  0.00     0.148 C 
BRANCH  23  24
HETATM   24  C2  UNL     1      -0.402  54.966  -8.021  1.00  0.00     0.186 C 
BRANCH  24  25
HETATM   25  O1  UNL     1      -0.436  56.379  -7.769  1.00  0.00    -0.394 OA
HETATM   26  C1  UNL     1       0.780  56.873  -7.224  1.00  0.00     0.201 C 
ENDBRANCH  24  25
ENDBRANCH  23  24
ENDBRANCH  20  23
ENDBRANCH  17  19
ENDBRANCH   1  17
BRANCH  16  27
HETATM   27  O4  UNL     1       1.104  53.028 -12.826  1.00  0.00    -0.395 OA
HETATM   28  H35 UNL     1       0.298  53.555 -12.679  1.00  0.00     0.210 HD
ENDBRANCH  16  27
BRANCH  11  29
HETATM   29  C16 UNL     1       0.638  53.460 -20.501  1.00  0.00     0.240 C 
BRANCH  29  30
HETATM   30  O3  UNL     1       1.138  52.615 -21.544  1.00  0.00    -0.345 OA
BRANCH  30  31
HETATM   31  C17 UNL     1       0.512  52.628 -22.760  1.00  0.00     0.070 A 
HETATM   32  C18 UNL     1       0.716  53.561 -23.778  1.00  0.00     0.037 A 
HETATM   33  C19 UNL     1       0.009  53.457 -24.980  1.00  0.00     0.004 A 
HETATM   34  C20 UNL     1      -0.896  52.414 -25.172  1.00  0.00     0.024 A 
HETATM   35  C21 UNL     1      -1.082  51.471 -24.163  1.00  0.00     0.036 A 
HETATM   36 CL1  UNL     1      -2.189  50.175 -24.402  1.00  0.00    -0.084 Cl
HETATM   37  C22 UNL     1      -0.380  51.573 -22.965  1.00  0.00     0.060 A 
ENDBRANCH  30  31
ENDBRANCH  29  30
ENDBRANCH  11  29
TORSDOF 9
ENDMDL
