MODEL 1
REMARK minimizedAffinity -8.24174595
REMARK CNNscore 0.68365407
REMARK CNNaffinity 5.84551048
REMARK  8 active torsions:
REMARK  status: ('A' for Active; 'I' for Inactive)
REMARK    1  A    between atoms: C3_3  and  O1_4 
REMARK    2  A    between atoms: N1_14  and  O2_16 
REMARK    3  A    between atoms: O2_16  and  C13_17 
REMARK    4  A    between atoms: C13_17  and  C14_18 
REMARK       I    between atoms: C14_18  and  N2_20 
REMARK    5  A    between atoms: N2_20  and  C15_21 
REMARK    6  A    between atoms: C15_21  and  C16_22 
REMARK    7  A    between atoms: C16_22  and  O4_23 
REMARK    8  A    between atoms: C16_22  and  C17_24 
ROOT
HETATM    1  C1  UNL     1     -14.829  -4.298   7.313  1.00  0.00     0.015 C 
HETATM    2  C2  UNL     1     -14.907  -4.019   8.478  1.00  0.00    -0.078 C 
HETATM    3  C3  UNL     1     -14.973  -3.666   9.906  1.00  0.00     0.128 C 
HETATM    4  C4  UNL     1     -16.165  -2.759  10.216  1.00  0.00     0.052 C 
HETATM    5  C5  UNL     1     -16.252  -2.800  11.737  1.00  0.00     0.010 C 
HETATM    6  C6  UNL     1     -15.889  -4.245  12.114  1.00  0.00     0.002 C 
HETATM    7  C7  UNL     1     -15.172  -4.433  13.470  1.00  0.00    -0.004 C 
HETATM    8  C8  UNL     1     -14.001  -3.477  13.788  1.00  0.00     0.010 C 
HETATM    9  C9  UNL     1     -12.717  -4.108  14.350  1.00  0.00     0.035 C 
HETATM   10  C10 UNL     1     -12.852  -5.367  15.174  1.00  0.00    -0.069 C 
HETATM   11  C11 UNL     1     -11.792  -5.805  15.879  1.00  0.00     0.030 C 
HETATM   12  C12 UNL     1     -11.809  -7.088  16.630  1.00  0.00     0.032 C 
HETATM   13  N1  UNL     1     -10.746  -7.403  17.315  1.00  0.00    -0.271 N 
ATOM     14  H1  UNL     1      -9.898  -6.837  17.354  1.00  0.00     0.194 HD
HETATM   15  C23 UNL     1     -13.061  -7.948  16.567  1.00  0.00     0.060 C 
HETATM   16  C24 UNL     1     -13.889  -7.659  15.318  1.00  0.00     0.020 C 
HETATM   17  C25 UNL     1     -14.152  -6.147  15.087  1.00  0.00    -0.016 C 
HETATM   18  C26 UNL     1     -15.094  -5.643  16.211  1.00  0.00     0.020 C 
HETATM   19  C27 UNL     1     -14.803  -5.920  13.677  1.00  0.00     0.002 C 
HETATM   20  C28 UNL     1     -13.971  -6.486  12.493  1.00  0.00     0.007 C 
HETATM   21  C29 UNL     1     -13.856  -5.567  11.273  1.00  0.00     0.014 C 
HETATM   22  C30 UNL     1     -15.173  -4.878  10.879  1.00  0.00     0.003 C 
HETATM   23  C31 UNL     1     -16.122  -5.950  10.274  1.00  0.00     0.020 C 
ENDROOT
BRANCH   3  24
HETATM   24  O1  UNL     1     -13.792  -2.928  10.235  1.00  0.00    -0.377 OA
HETATM   25  H2  UNL     1     -13.055  -3.350   9.758  1.00  0.00     0.211 HD
ENDBRANCH   3  24
BRANCH  13  26
HETATM   26  O2  UNL     1     -10.915  -8.619  17.992  1.00  0.00    -0.271 OA
BRANCH  26  27
HETATM   27  C13 UNL     1      -9.667  -9.009  18.554  1.00  0.00     0.303 C 
BRANCH  27  28
HETATM   28  C14 UNL     1      -9.968  -9.994  19.670  1.00  0.00     0.243 C 
HETATM   29  O3  UNL     1     -10.807 -10.887  19.565  1.00  0.00    -0.271 OA
HETATM   30  N2  UNL     1      -9.218  -9.799  20.813  1.00  0.00    -0.356 N 
HETATM   31  H16 UNL     1      -8.798  -8.882  20.931  1.00  0.00     0.162 HD
BRANCH  30  32
HETATM   32  C15 UNL     1      -9.542 -10.512  22.041  1.00  0.00     0.159 C 
BRANCH  32  33
HETATM   33  C16 UNL     1      -8.272 -10.816  22.860  1.00  0.00     0.170 C 
BRANCH  33  34
HETATM   34  O4  UNL     1      -7.179 -11.010  21.949  1.00  0.00    -0.389 OA
HETATM   35  H20 UNL     1      -6.500 -11.529  22.413  1.00  0.00     0.210 HD
ENDBRANCH  33  34
BRANCH  33  36
HETATM   36  C17 UNL     1      -8.412 -12.029  23.739  1.00  0.00    -0.013 A 
HETATM   37  C18 UNL     1      -9.507 -12.214  24.587  1.00  0.00     0.013 A 
HETATM   38  C19 UNL     1      -9.586 -13.360  25.375  1.00  0.00     0.025 A 
HETATM   39  C20 UNL     1      -8.574 -14.309  25.285  1.00  0.00     0.005 A 
HETATM   40  C21 UNL     1      -8.619 -15.547  26.130  1.00  0.00     0.068 C 
HETATM   41  N3  UNL     1      -7.500 -14.151  24.476  1.00  0.00    -0.369 N 
HETATM   42  C22 UNL     1      -7.440 -13.023  23.732  1.00  0.00     0.097 A 
ATOM     43  H3  UNL     1      -6.765 -14.856  24.428  1.00  0.00     0.165 HD
ENDBRANCH  33  36
ENDBRANCH  32  33
ENDBRANCH  30  32
ENDBRANCH  27  28
ENDBRANCH  26  27
ENDBRANCH  13  26
TORSDOF 8
ENDMDL
