MODEL 1
REMARK minimizedAffinity -8.45026779
REMARK CNNscore 0.72150588
REMARK CNNaffinity 8.11820698
REMARK  13 active torsions:
REMARK  status: ('A' for Active; 'I' for Inactive)
REMARK    1  A    between atoms: C3_3  and  C4_4 
REMARK    2  A    between atoms: C5_6  and  O2_7 
REMARK    3  A    between atoms: C5_6  and  C6_8 
REMARK    4  A    between atoms: C6_8  and  C8_10 
REMARK    5  A    between atoms: C8_10  and  O3_11 
REMARK    6  A    between atoms: C8_10  and  C9_12 
REMARK    7  A    between atoms: C9_12  and  C11_14 
REMARK    8  A    between atoms: C12_15  and  O4_16 
REMARK    9  A    between atoms: C22_26  and  O5_27 
REMARK   10  A    between atoms: C23_28  and  C24_29 
REMARK   11  A    between atoms: C26_31  and  O6_32 
REMARK   12  A    between atoms: C33_39  and  O7_40 
REMARK   13  A    between atoms: C39_48  and  O10_49 
ROOT
HETATM    1  C11 UNL     1      -4.489  48.907 -22.634  1.00  0.00     0.032 C 
HETATM    2  C12 UNL     1      -3.881  48.529 -21.227  1.00  0.00     0.154 C 
HETATM    3  C14 UNL     1      -4.929  48.571 -20.114  1.00  0.00    -0.051 C 
HETATM    4  C15 UNL     1      -5.116  47.611 -19.184  1.00  0.00     0.006 C 
HETATM    5  C16 UNL     1      -6.137  47.583 -18.156  1.00  0.00     0.003 C 
HETATM    6  C17 UNL     1      -6.349  46.603 -17.252  1.00  0.00    -0.083 C 
HETATM    7  C18 UNL     1      -5.522  45.352 -17.125  1.00  0.00     0.043 C 
HETATM    8  C19 UNL     1      -7.442  46.783 -16.209  1.00  0.00     0.040 C 
HETATM    9  C20 UNL     1      -8.810  46.093 -16.467  1.00  0.00     0.014 C 
HETATM   10  C21 UNL     1      -8.685  44.573 -16.357  1.00  0.00     0.012 C 
HETATM   11  C22 UNL     1      -9.515  46.590 -17.771  1.00  0.00     0.128 C 
HETATM   12  C23 UNL     1     -11.000  46.098 -17.926  1.00  0.00     0.044 C 
HETATM   13  C26 UNL     1     -11.118  44.689 -18.602  1.00  0.00     0.132 C 
HETATM   14  C27 UNL     1     -11.170  44.631 -20.160  1.00  0.00     0.034 C 
HETATM   15  C28 UNL     1     -11.422  43.193 -20.642  1.00  0.00     0.017 C 
HETATM   16  C29 UNL     1      -9.895  45.116 -20.810  1.00  0.00    -0.013 C 
HETATM   17  C30 UNL     1      -9.749  46.029 -21.794  1.00  0.00    -0.062 C 
HETATM   18  C31 UNL     1     -10.903  46.715 -22.477  1.00  0.00     0.048 C 
HETATM   19  C32 UNL     1      -8.388  46.349 -22.236  1.00  0.00     0.047 C 
HETATM   20  C33 UNL     1      -7.949  47.359 -23.015  1.00  0.00     0.123 C 
HETATM   21  C35 UNL     1      -6.517  47.595 -23.173  1.00  0.00     0.257 C 
HETATM   22  O8  UNL     1      -5.984  46.995 -24.139  1.00  0.00    -0.281 OA
HETATM   23  O9  UNL     1      -5.934  48.777 -22.602  1.00  0.00     0.000 OA
HETATM   24  C36 UNL     1      -6.653  49.460 -21.560  1.00  0.00     0.005 C 
HETATM   25  C37 UNL     1      -5.823  49.758 -20.318  1.00  0.00     0.037 C 
ENDROOT
BRANCH   1  26
HETATM   26  C9  UNL     1      -4.078  50.337 -23.170  1.00  0.00     0.018 C 
HETATM   27  C10 UNL     1      -4.586  51.476 -22.239  1.00  0.00     0.013 C 
BRANCH  26  28
HETATM   28  C8  UNL     1      -4.633  50.676 -24.597  1.00  0.00     0.131 C 
BRANCH  28  29
HETATM   29  C6  UNL     1      -3.649  50.675 -25.800  1.00  0.00     0.073 C 
HETATM   30  C7  UNL     1      -2.882  49.348 -25.879  1.00  0.00     0.018 C 
BRANCH  29  31
HETATM   31  C5  UNL     1      -2.677  51.908 -25.746  1.00  0.00     0.170 C 
HETATM   32  O1  UNL     1      -1.596  51.592 -24.860  1.00  0.00    -0.345 OA
HETATM   33  C4  UNL     1      -0.471  52.458 -25.023  1.00  0.00     0.153 C 
HETATM   34  C40 UNL     1       0.238  52.135 -26.357  1.00  0.00     0.043 C 
HETATM   35  C39 UNL     1      -0.791  51.790 -27.449  1.00  0.00     0.129 C 
HETATM   36  C41 UNL     1       1.244  50.976 -26.259  1.00  0.00     0.015 C 
HETATM   37  C38 UNL     1      -2.176  52.347 -27.138  1.00  0.00     0.101 C 
BRANCH  33  38
HETATM   38  C3  UNL     1       0.435  52.409 -23.817  1.00  0.00     0.001 C 
HETATM   39  C2  UNL     1       0.067  52.380 -22.525  1.00  0.00    -0.033 C 
HETATM   40  C1  UNL     1       1.030  52.336 -21.382  1.00  0.00     0.036 C 
ENDBRANCH  33  38
BRANCH  35  41
HETATM   41  O10 UNL     1      -0.335  52.334 -28.691  1.00  0.00    -0.395 OA
HETATM   42  H63 UNL     1      -0.879  51.955 -29.399  1.00  0.00     0.210 HD
ENDBRANCH  35  41
BRANCH  31  43
HETATM   43  O2  UNL     1      -3.449  52.966 -25.182  1.00  0.00    -0.365 OA
HETATM   44  H7  UNL     1      -3.021  53.814 -25.376  1.00  0.00     0.213 HD
ENDBRANCH  31  43
ENDBRANCH  29  31
ENDBRANCH  28  29
BRANCH  28  45
HETATM   45  O3  UNL     1      -5.219  51.985 -24.512  1.00  0.00    -0.395 OA
HETATM   46  H13 UNL     1      -5.608  52.158 -25.394  1.00  0.00     0.210 HD
ENDBRANCH  28  45
ENDBRANCH  26  28
ENDBRANCH   1  26
BRANCH   2  47
HETATM   47  O4  UNL     1      -3.270  47.235 -21.302  1.00  0.00    -0.386 OA
HETATM   48  C13 UNL     1      -1.860  47.264 -21.497  1.00  0.00     0.202 C 
ENDBRANCH   2  47
BRANCH  20  49
HETATM   49  O7  UNL     1      -8.780  48.360 -23.495  1.00  0.00    -0.352 OA
HETATM   50  C34 UNL     1      -8.759  48.398 -24.924  1.00  0.00     0.210 C 
ENDBRANCH  20  49
BRANCH  11  51
HETATM   51  O5  UNL     1      -9.479  48.026 -17.738  1.00  0.00    -0.395 OA
HETATM   52  H35 UNL     1      -9.956  48.314 -16.938  1.00  0.00     0.210 HD
ENDBRANCH  11  51
BRANCH  13  53
HETATM   53  O6  UNL     1     -12.305  44.055 -18.091  1.00  0.00    -0.394 OA
HETATM   54  H43 UNL     1     -12.179  43.916 -17.136  1.00  0.00     0.210 HD
ENDBRANCH  13  53
BRANCH  12  55
HETATM   55  C24 UNL     1     -11.928  47.169 -18.566  1.00  0.00     0.005 C 
HETATM   56  C25 UNL     1     -11.208  48.215 -19.410  1.00  0.00     0.005 C 
ENDBRANCH  12  55
TORSDOF 13
ENDMDL
