MODEL 1
REMARK minimizedAffinity -8.65886211
REMARK CNNscore 0.397083163
REMARK CNNaffinity 6.87856674
REMARK  18 active torsions:
REMARK  status: ('A' for Active; 'I' for Inactive)
REMARK    1  A    between atoms: C2_2  and  C4_4 
REMARK    2  A    between atoms: C4_4  and  N1_5 
REMARK    3  A    between atoms: C4_4  and  C30_38 
REMARK       I    between atoms: N1_5  and  C5_6 
REMARK    4  A    between atoms: C5_6  and  C6_8 
REMARK    5  A    between atoms: C6_8  and  C7_9 
REMARK    6  A    between atoms: C7_9  and  C8_10 
REMARK    7  A    between atoms: C8_10  and  O3_12 
REMARK    8  A    between atoms: O3_12  and  C9_13 
REMARK    9  A    between atoms: C9_13  and  C10_14 
REMARK   10  A    between atoms: C10_14  and  C11_16 
REMARK   11  A    between atoms: C11_16  and  O5_17 
REMARK   12  A    between atoms: C26_33  and  O7_34 
REMARK       I    between atoms: C30_38  and  N2_40 
REMARK   13  A    between atoms: N2_40  and  C31_41 
REMARK   14  A    between atoms: C31_41  and  C32_42 
REMARK   15  A    between atoms: C32_42  and  C33_43 
REMARK   16  A    between atoms: C32_42  and  C35_47 
REMARK   17  A    between atoms: C33_43  and  C34_44 
REMARK   18  A    between atoms: C34_44  and  O10_46 
ROOT
HETATM    1  C8  UNL     1      -1.893  49.264 -15.439  1.00  0.00     0.259 C 
HETATM    2  O2  UNL     1      -1.272  48.263 -15.101  1.00  0.00    -0.265 OA
ENDROOT
BRANCH   1   3
HETATM    3  C7  UNL     1      -2.150  49.642 -16.880  1.00  0.00     0.120 C 
BRANCH   3   4
HETATM    4  C6  UNL     1      -0.890  49.679 -17.739  1.00  0.00     0.112 C 
BRANCH   4   5
HETATM    5  C5  UNL     1      -1.192  49.702 -19.221  1.00  0.00     0.218 C 
HETATM    6  N1  UNL     1      -2.308  50.462 -19.512  1.00  0.00    -0.347 N 
HETATM    7  H9  UNL     1      -2.985  50.532 -18.761  1.00  0.00     0.163 HD
HETATM    8  O1  UNL     1      -0.526  49.116 -20.065  1.00  0.00    -0.274 OA
BRANCH   6   9
HETATM    9  C4  UNL     1      -2.886  50.446 -20.857  1.00  0.00     0.179 C 
BRANCH   9  10
HETATM   10  C2  UNL     1      -3.162  48.994 -21.309  1.00  0.00     0.009 C 
HETATM   11  C1  UNL     1      -4.656  48.703 -21.458  1.00  0.00     0.012 C 
HETATM   12  C3  UNL     1      -2.425  48.597 -22.594  1.00  0.00     0.012 C 
ENDBRANCH   9  10
BRANCH   9  13
HETATM   13  C30 UNL     1      -1.909  51.203 -21.788  1.00  0.00     0.240 C 
HETATM   14  O8  UNL     1      -1.053  51.973 -21.353  1.00  0.00    -0.271 OA
HETATM   15  N2  UNL     1      -2.048  50.915 -23.127  1.00  0.00    -0.359 N 
HETATM   16  H43 UNL     1      -2.825  50.338 -23.431  1.00  0.00     0.162 HD
BRANCH  15  17
HETATM   17  C31 UNL     1      -1.212  51.518 -24.150  1.00  0.00     0.132 C 
BRANCH  17  18
HETATM   18  C32 UNL     1      -1.148  50.677 -25.442  1.00  0.00     0.046 C 
BRANCH  18  19
HETATM   19  C33 UNL     1      -2.441  50.795 -26.264  1.00  0.00     0.120 C 
BRANCH  19  20
HETATM   20  C34 UNL     1      -3.156  52.084 -25.965  1.00  0.00     0.140 C 
HETATM   21  O9  UNL     1      -4.002  52.267 -25.105  1.00  0.00    -0.650 OA
BRANCH  20  22
HETATM   22  O10 UNL     1      -2.738  53.101 -26.739  1.00  0.00    -0.776 OA
HETATM   23  H49 UNL     1      -3.269  53.867 -26.435  1.00  0.00     0.167 HD
ENDBRANCH  20  22
ENDBRANCH  19  20
ENDBRANCH  18  19
BRANCH  18  24
HETATM   24  C35 UNL     1       0.074  51.065 -26.269  1.00  0.00    -0.052 A 
HETATM   25  C36 UNL     1      -0.079  51.385 -27.627  1.00  0.00     0.007 A 
HETATM   26  C37 UNL     1       1.025  51.746 -28.400  1.00  0.00     0.001 A 
HETATM   27  C38 UNL     1       2.294  51.795 -27.829  1.00  0.00     0.000 A 
HETATM   28  C39 UNL     1       2.460  51.487 -26.481  1.00  0.00     0.001 A 
HETATM   29  C40 UNL     1       1.359  51.127 -25.704  1.00  0.00     0.007 A 
ENDBRANCH  18  24
ENDBRANCH  17  18
ENDBRANCH  15  17
ENDBRANCH   9  13
ENDBRANCH   6   9
ENDBRANCH   4   5
ENDBRANCH   3   4
ENDBRANCH   1   3
BRANCH   1  30
HETATM   30  O3  UNL     1      -2.432  50.156 -14.569  1.00  0.00    -0.314 OA
BRANCH  30  31
HETATM   31  C9  UNL     1      -2.535  49.701 -13.219  1.00  0.00     0.260 C 
BRANCH  31  32
HETATM   32  C10 UNL     1      -3.352  50.634 -12.332  1.00  0.00     0.185 C 
HETATM   33  O4  UNL     1      -4.445  50.297 -11.860  1.00  0.00    -0.292 OA
BRANCH  32  34
HETATM   34  C11 UNL     1      -2.764  52.009 -11.962  1.00  0.00     0.128 C 
HETATM   35  C12 UNL     1      -3.772  53.153 -11.681  1.00  0.00     0.047 C 
HETATM   36  C13 UNL     1      -3.139  54.035 -10.586  1.00  0.00     0.009 C 
HETATM   37  C14 UNL     1      -1.707  53.526 -10.477  1.00  0.00     0.002 C 
HETATM   38  C15 UNL     1      -0.886  53.897  -9.234  1.00  0.00    -0.002 C 
HETATM   39  C28 UNL     1      -1.843  52.002 -10.702  1.00  0.00     0.001 C 
HETATM   40  C16 UNL     1      -0.879  55.426  -9.024  1.00  0.00     0.010 C 
HETATM   41  C25 UNL     1       0.565  53.322  -9.422  1.00  0.00     0.031 C 
HETATM   42  C17 UNL     1       0.102  55.881  -7.944  1.00  0.00     0.035 C 
HETATM   43  C18 UNL     1       1.459  55.299  -8.242  1.00  0.00    -0.068 C 
HETATM   44  C19 UNL     1       2.474  56.101  -8.608  1.00  0.00     0.053 C 
HETATM   45  C23 UNL     1       1.522  53.765  -8.251  1.00  0.00    -0.014 C 
HETATM   46  C20 UNL     1       3.726  55.546  -9.171  1.00  0.00     0.149 C 
HETATM   47  O6  UNL     1       4.660  56.298  -9.430  1.00  0.00    -0.293 OA
HETATM   48  C21 UNL     1       3.749  54.076  -9.508  1.00  0.00     0.084 C 
HETATM   49  C22 UNL     1       2.992  53.296  -8.448  1.00  0.00     0.022 C 
HETATM   50  C24 UNL     1       1.096  53.215  -6.864  1.00  0.00     0.020 C 
HETATM   51  C26 UNL     1       0.555  51.803  -9.755  1.00  0.00     0.124 C 
HETATM   52  C27 UNL     1      -0.417  51.433 -10.896  1.00  0.00     0.045 C 
HETATM   53  C29 UNL     1      -2.566  51.267  -9.542  1.00  0.00     0.019 C 
BRANCH  34  54
HETATM   54  O5  UNL     1      -2.011  52.410 -13.123  1.00  0.00    -0.381 OA
HETATM   55  H16 UNL     1      -1.519  51.617 -13.423  1.00  0.00     0.211 HD
ENDBRANCH  34  54
BRANCH  51  56
HETATM   56  O7  UNL     1       0.244  51.035  -8.603  1.00  0.00    -0.395 OA
HETATM   57  H37 UNL     1       0.498  50.110  -8.779  1.00  0.00     0.210 HD
ENDBRANCH  51  56
ENDBRANCH  32  34
ENDBRANCH  31  32
ENDBRANCH  30  31
ENDBRANCH   1  30
TORSDOF 18
ENDMDL
