MODEL 1
REMARK minimizedAffinity -7.82564116
REMARK CNNscore 0.483570427
REMARK CNNaffinity 6.91268015
REMARK  20 active torsions:
REMARK  status: ('A' for Active; 'I' for Inactive)
REMARK    1  A    between atoms: C2_2  and  C18_26 
REMARK    2  A    between atoms: C3_3  and  C4_4 
REMARK    3  A    between atoms: C4_4  and  O2_6 
REMARK    4  A    between atoms: O2_6  and  C5_7 
REMARK    5  A    between atoms: C5_7  and  C6_8 
REMARK    6  A    between atoms: C6_8  and  C7_9 
REMARK    7  A    between atoms: C7_9  and  C8_10 
REMARK    8  A    between atoms: C8_10  and  C9_11 
REMARK    9  A    between atoms: C9_11  and  C10_12 
REMARK   10  A    between atoms: C10_12  and  C11_13 
REMARK   11  A    between atoms: C11_13  and  C12_14 
REMARK       I    between atoms: C12_14  and  N1_16 
REMARK   12  A    between atoms: N1_16  and  C13_17 
REMARK   13  A    between atoms: C18_26  and  C19_27 
REMARK   14  A    between atoms: C21_29  and  O5_30 
REMARK   15  A    between atoms: C22_31  and  O6_32 
REMARK   16  A    between atoms: C22_31  and  C23_33 
REMARK   17  A    between atoms: C23_33  and  C24_34 
REMARK   18  A    between atoms: C25_35  and  C26_36 
REMARK   19  A    between atoms: C26_36  and  C28_38 
REMARK   20  A    between atoms: C28_38  and  O7_40 
ROOT
HETATM    1  C4  UNL     1      -7.574   3.489  12.716  1.00  0.00     0.283 C 
HETATM    2  O1  UNL     1      -8.707   3.083  12.534  1.00  0.00    -0.260 OA
ENDROOT
BRANCH   1   3
HETATM    3  C3  UNL     1      -6.333   2.678  12.669  1.00  0.00     0.084 C 
HETATM    4  C2  UNL     1      -5.511   2.539  11.608  1.00  0.00    -0.076 C 
HETATM    5  C1  UNL     1      -5.762   3.114  10.239  1.00  0.00     0.043 C 
BRANCH   4   6
HETATM    6  C18 UNL     1      -4.213   1.758  11.751  1.00  0.00     0.066 C 
BRANCH   6   7
HETATM    7  C19 UNL     1      -3.003   2.666  12.044  1.00  0.00     0.128 C 
HETATM    8  C20 UNL     1      -3.438   3.937  12.764  1.00  0.00     0.067 C 
HETATM    9  C21 UNL     1      -2.243   4.853  13.054  1.00  0.00     0.157 C 
HETATM   10  C22 UNL     1      -1.157   4.775  11.949  1.00  0.00     0.108 C 
HETATM   11  C30 UNL     1      -1.830   4.283  10.650  1.00  0.00     0.209 C 
HETATM   12  O8  UNL     1      -2.342   2.950  10.798  1.00  0.00    -0.382 OA
BRANCH   9  13
HETATM   13  O5  UNL     1      -2.778   6.171  13.193  1.00  0.00    -0.392 OA
HETATM   14  H28 UNL     1      -2.623   6.446  14.117  1.00  0.00     0.210 HD
ENDBRANCH   9  13
BRANCH  10  15
HETATM   15  O6  UNL     1      -0.174   3.781  12.324  1.00  0.00    -0.385 OA
HETATM   16  H29 UNL     1      -0.338   2.987  11.778  1.00  0.00     0.210 HD
ENDBRANCH  10  15
BRANCH  10  17
HETATM   17  C23 UNL     1      -0.426   6.114  11.673  1.00  0.00     0.069 C 
BRANCH  17  18
HETATM   18  C24 UNL     1       0.697   6.185  10.662  1.00  0.00    -0.027 C 
HETATM   19  C25 UNL     1       1.198   7.279  10.065  1.00  0.00    -0.024 C 
BRANCH  19  20
HETATM   20  C26 UNL     1       2.345   7.248   9.080  1.00  0.00     0.032 C 
HETATM   21  C27 UNL     1       2.781   5.800   8.832  1.00  0.00     0.017 C 
BRANCH  20  22
HETATM   22  C28 UNL     1       2.009   8.012   7.774  1.00  0.00     0.121 C 
HETATM   23  C29 UNL     1       1.821   7.135   6.539  1.00  0.00     0.040 C 
BRANCH  22  24
HETATM   24  O7  UNL     1       3.054   8.946   7.479  1.00  0.00    -0.395 OA
HETATM   25  H42 UNL     1       3.064   9.601   8.198  1.00  0.00     0.210 HD
ENDBRANCH  22  24
ENDBRANCH  20  22
ENDBRANCH  19  20
ENDBRANCH  17  18
ENDBRANCH  10  17
ENDBRANCH   6   7
ENDBRANCH   4   6
ENDBRANCH   1   3
BRANCH   1  26
HETATM   26  O2  UNL     1      -7.211   4.778  12.954  1.00  0.00    -0.318 OA
BRANCH  26  27
HETATM   27  C5  UNL     1      -6.518   4.997  14.193  1.00  0.00     0.179 C 
BRANCH  27  28
HETATM   28  C6  UNL     1      -7.454   5.653  15.209  1.00  0.00     0.027 C 
BRANCH  28  29
HETATM   29  C7  UNL     1      -7.933   7.029  14.735  1.00  0.00     0.002 C 
BRANCH  29  30
HETATM   30  C8  UNL     1      -9.438   7.093  14.457  1.00  0.00     0.000 C 
BRANCH  30  31
HETATM   31  C9  UNL     1      -9.889   6.629  13.070  1.00  0.00     0.000 C 
BRANCH  31  32
HETATM   32  C10 UNL     1     -11.171   7.270  12.528  1.00  0.00     0.009 C 
BRANCH  32  33
HETATM   33  C11 UNL     1     -11.683   8.478  13.311  1.00  0.00     0.103 C 
BRANCH  33  34
HETATM   34  C12 UNL     1     -13.199   8.573  13.398  1.00  0.00     0.222 C 
HETATM   35  O3  UNL     1     -13.776   9.585  13.777  1.00  0.00    -0.273 OA
HETATM   36  N1  UNL     1     -13.805   7.420  12.950  1.00  0.00    -0.321 N 
HETATM   37  H19 UNL     1     -13.221   6.765  12.438  1.00  0.00     0.169 HD
BRANCH  36  38
HETATM   38  C13 UNL     1     -15.139   7.112  12.921  1.00  0.00     0.123 A 
HETATM   39  C14 UNL     1     -15.959   6.288  13.584  1.00  0.00     0.071 A 
HETATM   40  S1  UNL     1     -15.750   5.110  14.809  1.00  0.00    -0.049 SA
HETATM   41  C16 UNL     1     -17.294   6.384  13.073  1.00  0.00     0.062 A 
HETATM   42  S2  UNL     1     -17.759   4.572  14.878  1.00  0.00    -0.062 SA
HETATM   43  C15 UNL     1     -18.260   5.631  13.588  1.00  0.00     0.088 A 
HETATM   44  N2  UNL     1     -17.295   7.295  12.072  1.00  0.00    -0.320 N 
HETATM   45  C17 UNL     1     -16.021   7.787  11.898  1.00  0.00     0.274 A 
HETATM   46  H21 UNL     1     -18.087   7.581  11.514  1.00  0.00     0.169 HD
HETATM   47  O4  UNL     1     -15.640   8.614  11.087  1.00  0.00    -0.266 OA
ENDBRANCH  36  38
ENDBRANCH  33  34
ENDBRANCH  32  33
ENDBRANCH  31  32
ENDBRANCH  30  31
ENDBRANCH  29  30
ENDBRANCH  28  29
ENDBRANCH  27  28
ENDBRANCH  26  27
ENDBRANCH   1  26
TORSDOF 20
ENDMDL
