MODEL 1
REMARK minimizedAffinity -7.27919722
REMARK CNNscore 0.271010637
REMARK CNNaffinity 6.76747131
REMARK  10 active torsions:
REMARK  status: ('A' for Active; 'I' for Inactive)
REMARK    1  A    between atoms: O1_2  and  C2_3 
REMARK    2  A    between atoms: C2_3  and  C3_4 
REMARK    3  A    between atoms: C3_4  and  C4_5 
REMARK    4  A    between atoms: C4_5  and  O2_6 
REMARK    5  A    between atoms: O2_6  and  C5_7 
REMARK    6  A    between atoms: C29_35  and  O6_36 
REMARK    7  A    between atoms: C30_38  and  O7_39 
REMARK    8  A    between atoms: C31_40  and  O8_42 
REMARK    9  A    between atoms: C38_48  and  O9_49 
REMARK   10  A    between atoms: C39_50  and  C40_51 
ROOT
HETATM    1  C5  UNL     1     -16.558   1.967  30.594  1.00  0.00     0.122 C 
HETATM    2  C6  UNL     1     -17.012   3.432  30.497  1.00  0.00     0.033 C 
HETATM    3  C7  UNL     1     -17.067   3.948  29.060  1.00  0.00     0.014 C 
HETATM    4  C8  UNL     1     -15.683   3.862  28.328  1.00  0.00    -0.010 C 
HETATM    5  C9  UNL     1     -14.857   5.075  28.844  1.00  0.00     0.018 C 
HETATM    6  C10 UNL     1     -14.871   2.611  28.813  1.00  0.00     0.073 C 
HETATM    7  C11 UNL     1     -15.769   1.496  29.363  1.00  0.00     0.045 C 
HETATM    8  C12 UNL     1     -13.828   2.058  27.841  1.00  0.00     0.161 C 
HETATM    9  O3  UNL     1     -13.115   1.104  28.161  1.00  0.00    -0.292 OA
HETATM   10  C13 UNL     1     -13.639   2.669  26.493  1.00  0.00    -0.005 C 
HETATM   11  C14 UNL     1     -14.580   3.509  26.010  1.00  0.00    -0.013 C 
HETATM   12  C15 UNL     1     -15.884   3.864  26.729  1.00  0.00     0.058 C 
HETATM   13  C16 UNL     1     -16.858   2.763  26.387  1.00  0.00    -0.091 C 
HETATM   14  C17 UNL     1     -17.707   1.920  26.251  1.00  0.00    -0.104 C 
HETATM   15  C18 UNL     1     -18.783   0.925  26.334  1.00  0.00     0.115 C 
HETATM   16  C19 UNL     1     -19.230   0.649  24.939  1.00  0.00     0.090 A 
HETATM   17  C20 UNL     1     -20.618   0.138  24.719  1.00  0.00     0.120 A 
HETATM   18  N1  UNL     1     -20.195   1.406  24.194  1.00  0.00    -0.243 NA
HETATM   19  C21 UNL     1     -20.772   2.602  24.640  1.00  0.00     0.233 C 
HETATM   20  O4  UNL     1     -21.124   2.812  25.799  1.00  0.00    -0.277 OA
HETATM   21  C22 UNL     1     -21.058   3.559  23.448  1.00  0.00     0.309 C 
HETATM   22  C23 UNL     1     -19.952   3.481  22.376  1.00  0.00     0.053 C 
HETATM   23  C24 UNL     1     -19.968   4.719  21.470  1.00  0.00     0.028 C 
HETATM   24  C25 UNL     1     -18.828   4.714  20.458  1.00  0.00     0.020 C 
HETATM   25  C26 UNL     1     -19.211   5.542  19.231  1.00  0.00     0.013 C 
HETATM   26  C27 UNL     1     -17.688   5.277  21.320  1.00  0.00     0.158 C 
HETATM   27  O5  UNL     1     -18.291   6.287  22.152  1.00  0.00    -0.373 OA
HETATM   28  C28 UNL     1     -19.701   5.981  22.303  1.00  0.00     0.185 C 
HETATM   29  C29 UNL     1     -20.106   5.772  23.793  1.00  0.00     0.384 C 
HETATM   30  N2  UNL     1     -21.301   4.949  23.920  1.00  0.00     0.128 N 
HETATM   31  C30 UNL     1     -16.415   5.762  20.581  1.00  0.00     0.181 C 
HETATM   32  C31 UNL     1     -15.176   6.189  21.494  1.00  0.00     0.087 C 
HETATM   33  C32 UNL     1     -14.019   6.505  20.518  1.00  0.00     0.049 C 
HETATM   34  C33 UNL     1     -14.778   5.105  22.555  1.00  0.00     0.035 C 
HETATM   35  C34 UNL     1     -13.436   4.270  22.433  1.00  0.00     0.016 C 
HETATM   36  C35 UNL     1     -13.128   3.785  23.880  1.00  0.00     0.026 C 
HETATM   37  C36 UNL     1     -12.553   2.402  24.128  1.00  0.00     0.013 C 
HETATM   38  C37 UNL     1     -12.454   2.174  25.664  1.00  0.00     0.043 C 
HETATM   39  C38 UNL     1     -14.478   3.912  24.574  1.00  0.00     0.096 C 
HETATM   40  C39 UNL     1     -14.909   5.349  24.133  1.00  0.00     0.005 C 
HETATM   41  C46 UNL     1     -16.365   5.479  24.662  1.00  0.00     0.016 C 
HETATM   42  C47 UNL     1     -16.533   5.197  26.182  1.00  0.00     0.029 C 
HETATM   43  H38 UNL     1     -22.026   5.356  23.328  1.00  0.00     0.320 HD
ENDROOT
BRANCH   1  44
HETATM   44  O2  UNL     1     -15.720   1.893  31.757  1.00  0.00    -0.386 OA
BRANCH  44  45
HETATM   45  C4  UNL     1     -15.662   3.086  32.536  1.00  0.00     0.170 C 
BRANCH  45  46
HETATM   46  C3  UNL     1     -14.225   3.545  32.747  1.00  0.00     0.052 C 
BRANCH  46  47
HETATM   47  C2  UNL     1     -13.365   2.468  33.394  1.00  0.00     0.169 C 
BRANCH  47  48
HETATM   48  O1  UNL     1     -12.311   2.089  32.507  1.00  0.00    -0.396 OA
HETATM   49  C1  UNL     1     -12.311   2.838  31.299  1.00  0.00     0.201 C 
ENDBRANCH  47  48
ENDBRANCH  46  47
ENDBRANCH  45  46
ENDBRANCH  44  45
ENDBRANCH   1  44
BRANCH  39  50
HETATM   50  O9  UNL     1     -15.346   2.934  23.916  1.00  0.00    -0.384 OA
HETATM   51  H53 UNL     1     -15.293   2.088  24.394  1.00  0.00     0.211 HD
ENDBRANCH  39  50
BRANCH  40  52
HETATM   52  C40 UNL     1     -14.018   6.614  24.675  1.00  0.00    -0.002 C 
HETATM   53  C41 UNL     1     -14.733   7.944  25.033  1.00  0.00     0.005 C 
HETATM   54  C42 UNL     1     -13.805   9.007  25.635  1.00  0.00     0.000 C 
HETATM   55  C43 UNL     1     -12.625   9.311  24.730  1.00  0.00     0.000 C 
HETATM   56  C44 UNL     1     -11.878   8.029  24.411  1.00  0.00     0.000 C 
HETATM   57  C45 UNL     1     -12.811   6.988  23.797  1.00  0.00     0.005 C 
ENDBRANCH  40  52
BRANCH  32  58
HETATM   58  O8  UNL     1     -15.522   7.405  22.162  1.00  0.00    -0.387 OA
HETATM   59  H44 UNL     1     -16.449   7.616  21.914  1.00  0.00     0.210 HD
ENDBRANCH  32  58
BRANCH  31  60
HETATM   60  O7  UNL     1     -16.783   6.890  19.763  1.00  0.00    -0.390 OA
HETATM   61  H40 UNL     1     -16.065   7.062  19.132  1.00  0.00     0.210 HD
ENDBRANCH  31  60
BRANCH  29  62
HETATM   62  O6  UNL     1     -20.400   7.016  24.392  1.00  0.00    -0.366 OA
HETATM   63  H37 UNL     1     -21.310   6.902  24.729  1.00  0.00     0.212 HD
ENDBRANCH  29  62
TORSDOF 10
ENDMDL
