MODEL 1
REMARK minimizedAffinity -8.90237713
REMARK  7 active torsions:
REMARK  status: ('A' for Active; 'I' for Inactive)
REMARK       I    between atoms: C1_2  and  N1_3 
REMARK    1  A    between atoms: C1_2  and  C8_12 
REMARK    2  A    between atoms: N1_3  and  C2_4 
REMARK    3  A    between atoms: C2_4  and  C3_5 
REMARK    4  A    between atoms: C14_19  and  C15_20 
REMARK    5  A    between atoms: C15_20  and  N4_21 
REMARK    6  A    between atoms: C17_23  and  C18_24 
REMARK    7  A    between atoms: C18_24  and  C19_25 
ROOT
HETATM    1  C8  UNL     1      -3.527  50.520 -24.743  1.00  0.00     0.110 C 
HETATM    2  C9  UNL     1      -2.630  49.802 -23.715  1.00  0.00     0.287 C 
HETATM    3  N3  UNL     1      -2.866  50.297 -22.331  1.00  0.00     0.095 N 
HETATM    4  C10 UNL     1      -4.332  50.305 -22.080  1.00  0.00     0.273 C 
HETATM    5  C11 UNL     1      -5.048  51.337 -22.972  1.00  0.00     0.036 C 
HETATM    6  C12 UNL     1      -4.083  51.800 -24.079  1.00  0.00     0.004 C 
HETATM    7  C13 UNL     1      -2.924  52.555 -23.391  1.00  0.00     0.043 C 
HETATM    8  C14 UNL     1      -2.379  51.709 -22.214  1.00  0.00     0.242 C 
ENDROOT
BRANCH   8   9
HETATM    9  C15 UNL     1      -0.848  51.787 -22.075  1.00  0.00     0.181 C 
BRANCH   9  10
HETATM   10  N4  UNL     1      -0.429  52.013 -20.708  1.00  0.00    -0.283 N 
HETATM   11  C16 UNL     1      -0.369  51.108 -19.692  1.00  0.00     0.134 A 
HETATM   12  C17 UNL     1       0.087  51.843 -18.620  1.00  0.00     0.041 A 
HETATM   13  N5  UNL     1       0.294  53.137 -19.023  1.00  0.00    -0.287 N 
HETATM   14  N6  UNL     1      -0.023  53.228 -20.307  1.00  0.00    -0.020 NA
ATOM     15  H5  UNL     1       0.634  53.899 -18.436  1.00  0.00     0.184 HD
BRANCH  12  16
HETATM   16  C18 UNL     1       0.351  51.424 -17.219  1.00  0.00     0.064 C 
BRANCH  16  17
HETATM   17  C19 UNL     1       1.305  52.375 -16.467  1.00  0.00    -0.009 C 
HETATM   18  C20 UNL     1       1.322  52.054 -14.957  1.00  0.00     0.005 C 
HETATM   19  C21 UNL     1       2.493  51.158 -14.569  1.00  0.00     0.000 C 
HETATM   20  C22 UNL     1       3.838  51.814 -14.883  1.00  0.00     0.000 C 
HETATM   21  C23 UNL     1       3.783  52.771 -16.074  1.00  0.00     0.000 C 
HETATM   22  C24 UNL     1       2.721  52.353 -17.082  1.00  0.00     0.005 C 
ENDBRANCH  16  17
ENDBRANCH  12  16
ENDBRANCH   9  10
ENDBRANCH   8   9
BRANCH   1  23
HETATM   23  C1  UNL     1      -2.796  50.776 -26.056  1.00  0.00     0.224 C 
HETATM   24  O1  UNL     1      -2.351  49.879 -26.764  1.00  0.00    -0.273 OA
HETATM   25  N1  UNL     1      -2.647  52.114 -26.357  1.00  0.00    -0.356 N 
HETATM   26  H1  UNL     1      -2.823  52.799 -25.635  1.00  0.00     0.162 HD
BRANCH  25  27
HETATM   27  C2  UNL     1      -1.875  52.548 -27.502  1.00  0.00     0.162 C 
BRANCH  27  28
HETATM   28  C3  UNL     1      -0.406  52.344 -27.272  1.00  0.00    -0.025 A 
HETATM   29  C4  UNL     1       0.420  51.811 -28.266  1.00  0.00     0.011 A 
HETATM   30  C5  UNL     1       1.774  51.617 -28.010  1.00  0.00     0.018 A 
HETATM   31  C6  UNL     1       2.260  51.960 -26.760  1.00  0.00     0.087 A 
HETATM   32  N2  UNL     1       1.494  52.470 -25.771  1.00  0.00    -0.375 N 
HETATM   33  C7  UNL     1       0.184  52.652 -26.051  1.00  0.00     0.096 A 
ATOM     34  H2  UNL     1       1.885  52.708 -24.860  1.00  0.00     0.164 HD
ENDBRANCH  27  28
ENDBRANCH  25  27
ENDBRANCH   1  23
TORSDOF 7
ENDMDL
