MODEL 1
REMARK minimizedAffinity -7.0151
REMARK CNNscore 0.660512686
REMARK CNNaffinity 7.1486249
REMARK  9 active torsions:
REMARK  status: ('A' for Active; 'I' for Inactive)
REMARK    1  A    between atoms: O1_2  and  C2_3 
REMARK    2  A    between atoms: C2_3  and  C3_4 
REMARK    3  A    between atoms: C3_4  and  C4_5 
REMARK    4  A    between atoms: C4_5  and  O2_6 
REMARK    5  A    between atoms: O2_6  and  C5_7 
REMARK    6  A    between atoms: C31_36  and  O5_37 
REMARK    7  A    between atoms: C36_42  and  O6_44 
REMARK    8  A    between atoms: C38_45  and  O7_46 
REMARK    9  A    between atoms: C45_54  and  O9_55 
ROOT
HETATM    1  C5  UNL     1       2.233  56.832  -7.988  1.00  0.00     0.122 C 
HETATM    2  C6  UNL     1       3.114  56.046  -8.956  1.00  0.00     0.033 C 
HETATM    3  C7  UNL     1       2.378  54.906  -9.665  1.00  0.00     0.014 C 
HETATM    4  C8  UNL     1       1.614  53.922  -8.707  1.00  0.00    -0.010 C 
HETATM    5  C9  UNL     1       2.673  53.206  -7.823  1.00  0.00     0.018 C 
HETATM    6  C10 UNL     1       0.682  54.800  -7.818  1.00  0.00     0.073 C 
HETATM    7  C11 UNL     1       1.449  55.898  -7.059  1.00  0.00     0.045 C 
HETATM    8  C12 UNL     1      -0.441  55.437  -8.649  1.00  0.00     0.161 C 
HETATM    9  O3  UNL     1      -0.812  56.598  -8.499  1.00  0.00    -0.292 OA
HETATM   10  C13 UNL     1      -1.178  54.565  -9.597  1.00  0.00    -0.005 C 
HETATM   11  C14 UNL     1      -0.677  53.339  -9.842  1.00  0.00    -0.013 C 
HETATM   12  C15 UNL     1       0.745  52.821  -9.513  1.00  0.00     0.058 C 
HETATM   13  C16 UNL     1       1.523  52.454 -10.759  1.00  0.00    -0.091 C 
HETATM   14  C17 UNL     1       2.228  51.983 -11.617  1.00  0.00    -0.104 C 
HETATM   15  C18 UNL     1       3.123  51.248 -12.540  1.00  0.00     0.115 C 
HETATM   16  C19 UNL     1       2.522  51.292 -13.911  1.00  0.00     0.090 A 
HETATM   17  C20 UNL     1       1.014  51.303 -14.129  1.00  0.00     0.120 A 
HETATM   18  N1  UNL     1       1.808  50.215 -14.516  1.00  0.00    -0.243 NA
HETATM   19  C21 UNL     1       1.801  48.877 -14.167  1.00  0.00     0.240 C 
HETATM   20  O4  UNL     1       2.843  48.217 -14.271  1.00  0.00    -0.277 OA
HETATM   21  C22 UNL     1       0.505  48.244 -13.492  1.00  0.00     0.245 C 
HETATM   22  C23 UNL     1      -0.808  48.907 -14.097  1.00  0.00     0.145 C 
HETATM   23  C24 UNL     1      -1.647  49.589 -13.085  1.00  0.00    -0.103 C 
HETATM   24  C25 UNL     1      -2.207  49.920 -12.071  1.00  0.00    -0.092 C 
HETATM   25  C26 UNL     1      -2.784  50.201 -10.710  1.00  0.00     0.067 C 
HETATM   26  C27 UNL     1      -3.809  51.426 -11.003  1.00  0.00     0.034 C 
HETATM   27  C28 UNL     1      -3.117  52.711 -10.452  1.00  0.00     0.027 C 
HETATM   28  C29 UNL     1      -3.307  54.094 -11.042  1.00  0.00     0.013 C 
HETATM   29  C30 UNL     1      -2.511  55.082 -10.136  1.00  0.00     0.043 C 
HETATM   30  C31 UNL     1      -1.625  52.352 -10.456  1.00  0.00     0.096 C 
HETATM   31  C32 UNL     1      -1.729  50.966  -9.745  1.00  0.00     0.013 C 
HETATM   32  C33 UNL     1      -2.304  51.113  -8.281  1.00  0.00     0.020 C 
HETATM   33  C34 UNL     1      -0.312  50.428  -9.557  1.00  0.00     0.016 C 
HETATM   34  C35 UNL     1       0.584  51.441  -8.774  1.00  0.00     0.029 C 
HETATM   35  C36 UNL     1      -3.380  48.783 -10.097  1.00  0.00     0.102 C 
HETATM   36  C37 UNL     1      -4.825  48.978  -9.591  1.00  0.00     0.050 C 
HETATM   37  C38 UNL     1      -3.375  47.475 -11.044  1.00  0.00     0.183 C 
HETATM   38  C39 UNL     1      -1.975  46.976 -11.477  1.00  0.00     0.158 C 
HETATM   39  O8  UNL     1      -1.060  46.484 -10.492  1.00  0.00    -0.373 OA
HETATM   40  C40 UNL     1       0.151  46.142 -11.260  1.00  0.00     0.185 C 
HETATM   41  C41 UNL     1      -0.310  45.819 -12.702  1.00  0.00     0.028 C 
HETATM   42  C42 UNL     1       0.429  46.693 -13.768  1.00  0.00     0.060 C 
HETATM   43  C43 UNL     1      -1.842  45.991 -12.637  1.00  0.00     0.020 C 
HETATM   44  C44 UNL     1      -2.526  44.649 -12.369  1.00  0.00     0.013 C 
HETATM   45  C45 UNL     1       1.202  47.294 -11.284  1.00  0.00     0.385 C 
HETATM   46  N2  UNL     1       0.733  48.450 -12.029  1.00  0.00     0.134 N 
HETATM   47  H60 UNL     1       1.334  49.252 -11.880  1.00  0.00     0.321 HD
ENDROOT
BRANCH   1  48
HETATM   48  O2  UNL     1       3.050  57.669  -7.161  1.00  0.00    -0.386 OA
BRANCH  48  49
HETATM   49  C4  UNL     1       3.038  57.282  -5.788  1.00  0.00     0.170 C 
BRANCH  49  50
HETATM   50  C3  UNL     1       3.692  58.371  -4.948  1.00  0.00     0.052 C 
BRANCH  50  51
HETATM   51  C2  UNL     1       2.817  58.797  -3.774  1.00  0.00     0.169 C 
BRANCH  51  52
HETATM   52  O1  UNL     1       3.318  58.165  -2.595  1.00  0.00    -0.396 OA
HETATM   53  C1  UNL     1       4.735  58.251  -2.517  1.00  0.00     0.201 C 
ENDBRANCH  51  52
ENDBRANCH  50  51
ENDBRANCH  49  50
ENDBRANCH  48  49
ENDBRANCH   1  48
BRANCH  30  54
HETATM   54  O5  UNL     1      -1.191  52.287 -11.813  1.00  0.00    -0.384 OA
HETATM   55  H35 UNL     1      -0.968  53.182 -12.116  1.00  0.00     0.211 HD
ENDBRANCH  30  54
BRANCH  35  56
HETATM   56  O6  UNL     1      -2.636  48.420  -8.915  1.00  0.00    -0.386 OA
HETATM   57  H46 UNL     1      -2.106  47.616  -9.118  1.00  0.00     0.210 HD
ENDBRANCH  35  56
BRANCH  37  58
HETATM   58  O7  UNL     1      -4.024  46.368 -10.395  1.00  0.00    -0.390 OA
HETATM   59  H48 UNL     1      -4.976  46.554 -10.348  1.00  0.00     0.210 HD
ENDBRANCH  37  58
BRANCH  45  60
HETATM   60  O9  UNL     1       1.497  47.686  -9.958  1.00  0.00    -0.366 OA
HETATM   61  H59 UNL     1       2.002  48.510 -10.017  1.00  0.00     0.212 HD
ENDBRANCH  45  60
TORSDOF 9
ENDMDL
