MODEL 1
REMARK minimizedAffinity -7.97099495
REMARK CNNscore 0.587543428
REMARK CNNaffinity 6.76195574
REMARK  7 active torsions:
REMARK  status: ('A' for Active; 'I' for Inactive)
REMARK    1  A    between atoms: C2_2  and  C30_33 
REMARK    2  A    between atoms: C3_3  and  C4_4 
REMARK    3  A    between atoms: C4_4  and  C5_5 
REMARK    4  A    between atoms: C5_5  and  C6_6 
REMARK    5  A    between atoms: C6_6  and  C8_8 
REMARK    6  A    between atoms: C15_15  and  O1_16 
REMARK    7  A    between atoms: C30_33  and  O5_35 
ROOT
HETATM    1  C8  UNL     1      -2.109  47.929 -19.270  1.00  0.00    -0.002 C 
HETATM    2  C9  UNL     1      -2.840  47.070 -18.214  1.00  0.00     0.007 C 
HETATM    3  C10 UNL     1      -4.217  46.704 -18.820  1.00  0.00     0.015 C 
HETATM    4  C11 UNL     1      -4.099  47.033 -20.326  1.00  0.00    -0.005 C 
HETATM    5  C12 UNL     1      -3.392  45.812 -20.998  1.00  0.00     0.021 C 
HETATM    6  C13 UNL     1      -5.323  47.268 -21.202  1.00  0.00     0.002 C 
HETATM    7  C14 UNL     1      -5.276  48.105 -22.280  1.00  0.00    -0.032 C 
HETATM    8  C15 UNL     1      -4.007  48.902 -22.604  1.00  0.00     0.149 C 
HETATM    9  C16 UNL     1      -2.798  48.737 -21.653  1.00  0.00     0.047 C 
HETATM   10  C17 UNL     1      -3.250  48.360 -20.236  1.00  0.00    -0.026 C 
HETATM   11  C18 UNL     1      -4.072  49.541 -19.638  1.00  0.00     0.016 C 
HETATM   12  C19 UNL     1      -6.528  48.314 -23.181  1.00  0.00    -0.012 C 
HETATM   13  C20 UNL     1      -7.378  49.401 -22.467  1.00  0.00     0.021 C 
HETATM   14  C21 UNL     1      -6.262  48.822 -24.633  1.00  0.00     0.021 C 
HETATM   15  C22 UNL     1      -6.152  47.705 -25.659  1.00  0.00     0.080 C 
HETATM   16  C23 UNL     1      -7.481  46.986 -25.754  1.00  0.00     0.135 C 
HETATM   17  O2  UNL     1      -7.928  46.646 -26.850  1.00  0.00    -0.297 OA
HETATM   18  C24 UNL     1      -8.225  46.691 -24.438  1.00  0.00     0.018 C 
HETATM   19  C25 UNL     1      -9.476  47.575 -24.387  1.00  0.00     0.023 C 
HETATM   20  C26 UNL     1      -8.680  45.215 -24.494  1.00  0.00     0.023 C 
HETATM   21  C27 UNL     1      -7.222  46.906 -23.259  1.00  0.00     0.020 C 
HETATM   22  C28 UNL     1      -7.723  46.495 -21.875  1.00  0.00     0.090 C 
HETATM   23  C29 UNL     1      -6.582  46.507 -20.877  1.00  0.00     0.157 C 
HETATM   24  O3  UNL     1      -6.699  45.893 -19.818  1.00  0.00    -0.293 OA
ENDROOT
BRANCH   1  25
HETATM   25  C6  UNL     1      -1.031  48.934 -18.777  1.00  0.00    -0.014 C 
HETATM   26  C7  UNL     1      -1.247  49.229 -17.282  1.00  0.00     0.010 C 
BRANCH  25  27
HETATM   27  C5  UNL     1      -0.712  50.232 -19.556  1.00  0.00     0.008 C 
BRANCH  27  28
HETATM   28  C4  UNL     1      -0.259  50.196 -21.020  1.00  0.00     0.028 C 
BRANCH  28  29
HETATM   29  C3  UNL     1       0.390  51.452 -21.524  1.00  0.00    -0.013 C 
HETATM   30  C2  UNL     1       0.456  52.641 -20.892  1.00  0.00     0.008 C 
HETATM   31  C1  UNL     1      -0.156  52.959 -19.561  1.00  0.00     0.055 C 
BRANCH  30  32
HETATM   32  C30 UNL     1       1.180  53.729 -21.598  1.00  0.00     0.171 C 
HETATM   33  O4  UNL     1       1.818  54.633 -21.088  1.00  0.00    -0.646 OA
BRANCH  32  34
HETATM   34  O5  UNL     1       1.067  53.636 -22.933  1.00  0.00    -0.773 OA
HETATM   35  H44 UNL     1       1.578  54.407 -23.257  1.00  0.00     0.167 HD
ENDBRANCH  32  34
ENDBRANCH  30  32
ENDBRANCH  28  29
ENDBRANCH  27  28
ENDBRANCH  25  27
ENDBRANCH   1  25
BRANCH   8  36
HETATM   36  O1  UNL     1      -4.363  50.283 -22.621  1.00  0.00    -0.391 OA
HETATM   37  H22 UNL     1      -3.585  50.784 -22.916  1.00  0.00     0.210 HD
ENDBRANCH   8  36
TORSDOF 7
ENDMDL
