MODEL 1
REMARK minimizedAffinity -10.5763664
REMARK  9 active torsions:
REMARK  status: ('A' for Active; 'I' for Inactive)
REMARK    1  A    between atoms: C2_2  and  C3_3 
REMARK    2  A    between atoms: C2_2  and  C9_12 
REMARK    3  A    between atoms: C3_3  and  C4_4 
REMARK    4  A    between atoms: C4_4  and  C5_5 
REMARK    5  A    between atoms: C5_5  and  O1_6 
REMARK    6  A    between atoms: C5_5  and  C6_7 
REMARK    7  A    between atoms: C6_7  and  O2_9 
REMARK    8  A    between atoms: C6_7  and  C8_10 
REMARK    9  A    between atoms: C8_10  and  O3_11 
ROOT
HETATM    1  C9  UNL     1      -5.516  47.796 -22.781  1.00  0.00    -0.002 C 
HETATM    2  C10 UNL     1      -5.271  48.393 -21.363  1.00  0.00     0.007 C 
HETATM    3  C11 UNL     1      -4.149  49.438 -21.485  1.00  0.00     0.015 C 
HETATM    4  C12 UNL     1      -3.505  49.172 -22.857  1.00  0.00    -0.005 C 
HETATM    5  C13 UNL     1      -2.500  47.994 -22.666  1.00  0.00     0.021 C 
HETATM    6  C14 UNL     1      -2.693  50.254 -23.554  1.00  0.00    -0.000 C 
HETATM    7  C15 UNL     1      -2.623  50.355 -24.905  1.00  0.00    -0.060 C 
HETATM    8  C16 UNL     1      -3.407  49.349 -25.773  1.00  0.00     0.036 C 
HETATM    9  C17 UNL     1      -4.310  48.317 -25.062  1.00  0.00     0.015 C 
HETATM   10  C18 UNL     1      -4.794  48.828 -23.702  1.00  0.00    -0.028 C 
HETATM   11  C19 UNL     1      -5.729  50.057 -23.929  1.00  0.00     0.016 C 
HETATM   12  C20 UNL     1      -1.868  51.502 -25.658  1.00  0.00    -0.014 C 
HETATM   13  C21 UNL     1      -2.981  52.359 -26.330  1.00  0.00     0.020 C 
HETATM   14  C22 UNL     1      -0.953  50.940 -26.785  1.00  0.00     0.021 C 
HETATM   15  C23 UNL     1       0.478  50.704 -26.337  1.00  0.00     0.080 C 
HETATM   16  C24 UNL     1       1.132  52.014 -25.966  1.00  0.00     0.135 C 
HETATM   17  O4  UNL     1       2.340  52.175 -26.148  1.00  0.00    -0.297 OA
HETATM   18  C25 UNL     1       0.248  53.112 -25.356  1.00  0.00     0.018 C 
HETATM   19  C26 UNL     1      -0.092  54.126 -26.466  1.00  0.00     0.023 C 
HETATM   20  C27 UNL     1       1.092  53.886 -24.315  1.00  0.00     0.023 C 
HETATM   21  C28 UNL     1      -1.038  52.467 -24.702  1.00  0.00     0.020 C 
HETATM   22  C29 UNL     1      -0.677  51.785 -23.375  1.00  0.00     0.090 C 
HETATM   23  C30 UNL     1      -1.880  51.176 -22.724  1.00  0.00     0.157 C 
HETATM   24  O5  UNL     1      -2.121  51.373 -21.537  1.00  0.00    -0.293 OA
ENDROOT
BRANCH   1  25
HETATM   25  C2  UNL     1      -7.021  47.452 -23.014  1.00  0.00    -0.014 C 
HETATM   26  C1  UNL     1      -7.935  48.135 -21.991  1.00  0.00     0.010 C 
BRANCH  25  27
HETATM   27  C3  UNL     1      -7.445  47.855 -24.457  1.00  0.00     0.007 C 
BRANCH  27  28
HETATM   28  C4  UNL     1      -8.929  48.238 -24.583  1.00  0.00     0.035 C 
BRANCH  28  29
HETATM   29  C5  UNL     1      -9.374  48.706 -25.981  1.00  0.00     0.154 C 
BRANCH  29  30
HETATM   30  O1  UNL     1      -9.522  50.133 -25.943  1.00  0.00    -0.392 OA
HETATM   31  H10 UNL     1     -10.449  50.285 -25.667  1.00  0.00     0.210 HD
ENDBRANCH  29  30
BRANCH  29  32
HETATM   32  C6  UNL     1     -10.668  48.076 -26.567  1.00  0.00     0.101 C 
HETATM   33  C7  UNL     1     -10.392  47.508 -27.969  1.00  0.00     0.051 C 
BRANCH  32  34
HETATM   34  O2  UNL     1     -11.650  49.116 -26.746  1.00  0.00    -0.385 OA
HETATM   35  H14 UNL     1     -12.487  48.640 -26.931  1.00  0.00     0.210 HD
ENDBRANCH  32  34
BRANCH  32  36
HETATM   36  C8  UNL     1     -11.265  46.990 -25.651  1.00  0.00     0.204 C 
BRANCH  36  37
HETATM   37  O3  UNL     1     -12.530  47.435 -25.148  1.00  0.00    -0.398 OA
HETATM   38  H17 UNL     1     -12.885  46.716 -24.596  1.00  0.00     0.209 HD
ENDBRANCH  36  37
ENDBRANCH  32  36
ENDBRANCH  29  32
ENDBRANCH  28  29
ENDBRANCH  27  28
ENDBRANCH  25  27
ENDBRANCH   1  25
TORSDOF 9
ENDMDL
