MODEL 1
REMARK minimizedAffinity -10.544467
REMARK CNNscore 0.640210629
REMARK CNNaffinity 7.7851615
REMARK  7 active torsions:
REMARK  status: ('A' for Active; 'I' for Inactive)
REMARK    1  A    between atoms: C22_25  and  O4_26 
REMARK    2  A    between atoms: C23_27  and  O5_28 
REMARK    3  A    between atoms: C27_33  and  O7_34 
REMARK    4  A    between atoms: C28_35  and  C29_36 
REMARK    5  A    between atoms: C29_36  and  O8_37 
REMARK    6  A    between atoms: C30_38  and  C31_39 
REMARK    7  A    between atoms: C33_41  and  C34_42 
ROOT
HETATM    1  C1  UNL     1       2.107  51.766 -26.348  1.00  0.00     0.046 C 
HETATM    2  C2  UNL     1       0.650  51.550 -26.051  1.00  0.00    -0.056 C 
HETATM    3  C3  UNL     1       0.247  50.900 -24.941  1.00  0.00    -0.004 C 
HETATM    4  C4  UNL     1      -1.212  50.666 -24.656  1.00  0.00     0.150 C 
HETATM    5  C5  UNL     1      -1.556  50.360 -23.206  1.00  0.00     0.270 C 
HETATM    6  O1  UNL     1      -2.288  49.427 -22.890  1.00  0.00    -0.264 OA
HETATM    7  O2  UNL     1      -0.997  51.227 -22.323  1.00  0.00    -0.315 OA
HETATM    8  C6  UNL     1      -1.313  51.094 -20.916  1.00  0.00     0.139 C 
HETATM    9  C7  UNL     1      -2.789  51.366 -20.617  1.00  0.00     0.065 C 
HETATM   10  C8  UNL     1      -3.311  50.608 -19.391  1.00  0.00     0.131 C 
HETATM   11  C9  UNL     1      -4.069  49.289 -19.688  1.00  0.00     0.059 C 
HETATM   12  C10 UNL     1      -5.363  49.477 -20.445  1.00  0.00    -0.022 C 
HETATM   13  C11 UNL     1      -6.004  48.544 -21.180  1.00  0.00    -0.087 C 
HETATM   14  C12 UNL     1      -5.566  47.107 -21.286  1.00  0.00     0.043 C 
HETATM   15  C13 UNL     1      -7.254  48.907 -21.974  1.00  0.00     0.041 C 
HETATM   16  C14 UNL     1      -7.084  48.884 -23.519  1.00  0.00     0.008 C 
HETATM   17  C15 UNL     1      -8.386  49.325 -24.196  1.00  0.00     0.014 C 
HETATM   18  C16 UNL     1      -5.869  49.682 -23.933  1.00  0.00    -0.022 C 
HETATM   19  C17 UNL     1      -5.813  50.920 -24.445  1.00  0.00    -0.003 C 
HETATM   20  C18 UNL     1      -4.532  51.579 -24.499  1.00  0.00     0.008 C 
HETATM   21  C19 UNL     1      -3.543  51.292 -25.359  1.00  0.00    -0.019 C 
HETATM   22  C20 UNL     1      -3.617  50.488 -26.627  1.00  0.00     0.206 C 
HETATM   23  O3  UNL     1      -2.397  50.787 -27.357  1.00  0.00    -0.375 OA
HETATM   24  C21 UNL     1      -1.832  51.966 -26.723  1.00  0.00     0.194 C 
HETATM   25  C22 UNL     1      -0.328  52.161 -27.030  1.00  0.00     0.179 C 
HETATM   26  C23 UNL     1      -2.127  51.776 -25.241  1.00  0.00     0.128 C 
HETATM   27  O6  UNL     1      -2.295  50.417 -18.403  1.00  0.00    -0.349 OA
HETATM   28  C24 UNL     1      -1.061  49.807 -18.795  1.00  0.00     0.170 C 
HETATM   29  C25 UNL     1      -0.831  49.783 -20.310  1.00  0.00     0.101 C 
HETATM   30  C26 UNL     1      -0.977  48.387 -18.215  1.00  0.00     0.100 C 
HETATM   31  C27 UNL     1      -0.972  48.416 -16.687  1.00  0.00     0.132 C 
HETATM   32  C28 UNL     1       0.145  49.338 -16.167  1.00  0.00     0.071 C 
HETATM   33  C30 UNL     1       0.044  50.714 -16.849  1.00  0.00     0.162 C 
HETATM   34  O9  UNL     1       0.023  50.587 -18.274  1.00  0.00    -0.345 OA
ENDROOT
BRANCH  31  35
HETATM   35  O7  UNL     1      -2.256  48.813 -16.196  1.00  0.00    -0.395 OA
HETATM   36  H36 UNL     1      -2.583  49.537 -16.768  1.00  0.00     0.210 HD
ENDBRANCH  31  35
BRANCH  33  37
HETATM   37  C31 UNL     1       1.215  51.635 -16.528  1.00  0.00    -0.058 C 
HETATM   38  C32 UNL     1       1.300  52.918 -17.317  1.00  0.00     0.046 C 
HETATM   39  C33 UNL     1       2.114  51.306 -15.575  1.00  0.00    -0.018 C 
BRANCH  39  40
HETATM   40  C34 UNL     1       3.332  52.096 -15.160  1.00  0.00     0.000 C 
HETATM   41  C35 UNL     1       4.194  51.272 -14.203  1.00  0.00     0.013 C 
HETATM   42  C36 UNL     1       4.143  52.498 -16.392  1.00  0.00     0.013 C 
ENDBRANCH  39  40
ENDBRANCH  33  37
BRANCH  32  43
HETATM   43  C29 UNL     1       0.119  49.454 -14.639  1.00  0.00     0.174 C 
BRANCH  43  44
HETATM   44  O8  UNL     1      -1.027  50.194 -14.227  1.00  0.00    -0.400 OA
HETATM   45  H40 UNL     1      -0.842  50.506 -13.322  1.00  0.00     0.209 HD
ENDBRANCH  43  44
ENDBRANCH  32  43
BRANCH  26  46
HETATM   46  O5  UNL     1      -2.035  53.009 -24.536  1.00  0.00    -0.381 OA
HETATM   47  H30 UNL     1      -2.725  53.606 -24.872  1.00  0.00     0.211 HD
ENDBRANCH  26  46
BRANCH  25  48
HETATM   48  O4  UNL     1      -0.041  51.679 -28.341  1.00  0.00    -0.389 OA
HETATM   49  H29 UNL     1      -0.678  50.952 -28.495  1.00  0.00     0.210 HD
ENDBRANCH  25  48
TORSDOF 7
ENDMDL
