MODEL 1
REMARK minimizedAffinity -6.71168756
REMARK  7 active torsions:
REMARK  status: ('A' for Active; 'I' for Inactive)
REMARK    1  A    between atoms: C2_2  and  N1_3 
REMARK    2  A    between atoms: N1_3  and  C3_4 
REMARK    3  A    between atoms: N1_3  and  C5_6 
REMARK    4  A    between atoms: C5_6  and  C6_7 
REMARK    5  A    between atoms: C6_7  and  N2_8 
REMARK       I    between atoms: N2_8  and  C7_9 
REMARK    6  A    between atoms: C7_9  and  C8_11 
REMARK    7  A    between atoms: C11_14  and  N3_15 
REMARK       I    between atoms: N3_15  and  C12_16 
ROOT
HETATM    1  C8  UNL     1       0.749  53.281 -22.757  1.00  0.00     0.032 A 
HETATM    2  C9  UNL     1       0.260  52.185 -22.040  1.00  0.00     0.019 A 
HETATM    3  C10 UNL     1       0.481  52.088 -20.659  1.00  0.00     0.030 A 
HETATM    4  C11 UNL     1       1.183  53.085 -19.979  1.00  0.00     0.034 A 
HETATM    5  C14 UNL     1       1.656  54.189 -20.700  1.00  0.00     0.030 A 
HETATM    6  C15 UNL     1       1.439  54.289 -22.077  1.00  0.00     0.019 A 
ENDROOT
BRANCH   1   7
HETATM    7  C7  UNL     1       0.540  53.429 -24.226  1.00  0.00     0.251 C 
HETATM    8  N2  UNL     1       0.274  52.270 -24.926  1.00  0.00    -0.355 N 
HETATM    9  H15 UNL     1       0.568  51.399 -24.500  1.00  0.00     0.162 HD
HETATM   10  O1  UNL     1       0.642  54.530 -24.754  1.00  0.00    -0.268 OA
BRANCH   8  11
HETATM   11  C6  UNL     1       0.304  52.264 -26.379  1.00  0.00     0.153 C 
BRANCH  11  12
HETATM   12  C5  UNL     1      -0.183  50.915 -26.944  1.00  0.00     0.292 C 
BRANCH  12  13
HETATM   13  N1  UNL     1      -1.661  50.784 -26.978  1.00  0.00     0.089 N 
BRANCH  13  14
HETATM   14  C2  UNL     1      -2.322  52.100 -26.940  1.00  0.00     0.268 C 
HETATM   15  C1  UNL     1      -3.293  52.226 -25.771  1.00  0.00     0.037 C 
ENDBRANCH  13  14
BRANCH  13  16
HETATM   16  C3  UNL     1      -2.196  49.884 -25.942  1.00  0.00     0.268 C 
HETATM   17  C4  UNL     1      -2.821  48.579 -26.426  1.00  0.00     0.037 C 
ENDBRANCH  13  16
ENDBRANCH  12  13
ENDBRANCH  11  12
ENDBRANCH   8  11
ENDBRANCH   1   7
BRANCH   4  18
HETATM   18  N3  UNL     1       1.445  53.060 -18.594  1.00  0.00    -0.328 N 
HETATM   19  C12 UNL     1       0.838  52.269 -17.635  1.00  0.00     0.218 C 
HETATM   20  C13 UNL     1       1.387  52.537 -16.257  1.00  0.00     0.117 C 
HETATM   21  O2  UNL     1      -0.039  51.432 -17.814  1.00  0.00    -0.274 OA
HETATM   22  H18 UNL     1       2.165  53.693 -18.269  1.00  0.00     0.169 HD
ENDBRANCH   4  18
TORSDOF 7
ENDMDL
