MODEL 1
REMARK minimizedAffinity -8.28941536
REMARK CNNscore 0.584907472
REMARK CNNaffinity 6.90590906
REMARK  11 active torsions:
REMARK  status: ('A' for Active; 'I' for Inactive)
REMARK    1  A    between atoms: C2_2  and  O1_4 
REMARK    2  A    between atoms: C2_2  and  C4_5 
REMARK    3  A    between atoms: C5_6  and  C6_7 
REMARK    4  A    between atoms: C6_7  and  C7_8 
REMARK    5  A    between atoms: C7_8  and  C8_9 
REMARK    6  A    between atoms: C7_8  and  C14_21 
REMARK    7  A    between atoms: C8_9  and  O3_11 
REMARK    8  A    between atoms: O3_11  and  C9_12 
REMARK    9  A    between atoms: C11_15  and  O5_16 
REMARK   10  A    between atoms: C12_17  and  O6_18 
REMARK   11  A    between atoms: C13_19  and  O7_20 
ROOT
HETATM    1  C7  UNL     1       1.776  53.671 -10.542  1.00  0.00     0.094 C 
ENDROOT
BRANCH   1   2
HETATM    2  C6  UNL     1       1.914  52.134 -10.610  1.00  0.00     0.042 C 
BRANCH   2   3
HETATM    3  C5  UNL     1       2.177  51.532 -11.964  1.00  0.00    -0.027 C 
HETATM    4  C4  UNL     1       3.296  50.853 -12.273  1.00  0.00     0.006 C 
BRANCH   4   5
HETATM    5  C2  UNL     1       3.619  50.215 -13.605  1.00  0.00     0.068 C 
HETATM    6  C1  UNL     1       2.609  49.106 -13.912  1.00  0.00     0.050 C 
HETATM    7  C3  UNL     1       3.611  51.278 -14.708  1.00  0.00     0.050 C 
BRANCH   5   8
HETATM    8  O1  UNL     1       4.919  49.631 -13.549  1.00  0.00    -0.387 OA
HETATM    9  H7  UNL     1       5.112  49.258 -14.426  1.00  0.00     0.211 HD
ENDBRANCH   5   8
ENDBRANCH   4   5
ENDBRANCH   2   3
ENDBRANCH   1   2
BRANCH   1  10
HETATM   10  C8  UNL     1       0.443  54.102  -9.936  1.00  0.00     0.266 C 
HETATM   11  O2  UNL     1       0.157  55.218  -9.526  1.00  0.00    -0.265 OA
BRANCH  10  12
HETATM   12  O3  UNL     1      -0.442  53.063  -9.957  1.00  0.00    -0.287 OA
BRANCH  12  13
HETATM   13  C9  UNL     1      -1.623  53.295 -10.743  1.00  0.00     0.300 C 
HETATM   14  O4  UNL     1      -2.739  53.433  -9.863  1.00  0.00    -0.355 OA
HETATM   15  C10 UNL     1      -3.916  53.827 -10.566  1.00  0.00     0.205 C 
HETATM   16  C11 UNL     1      -4.222  52.954 -11.794  1.00  0.00     0.173 C 
HETATM   17  C12 UNL     1      -3.307  51.719 -11.866  1.00  0.00     0.182 C 
HETATM   18  C13 UNL     1      -1.836  52.153 -11.776  1.00  0.00     0.205 C 
BRANCH  16  19
HETATM   19  O5  UNL     1      -4.097  53.745 -12.986  1.00  0.00    -0.391 OA
HETATM   20  H17 UNL     1      -3.185  53.654 -13.333  1.00  0.00     0.210 HD
ENDBRANCH  16  19
BRANCH  17  21
HETATM   21  O6  UNL     1      -3.623  50.784 -10.827  1.00  0.00    -0.390 OA
HETATM   22  H19 UNL     1      -4.538  50.496 -10.974  1.00  0.00     0.210 HD
ENDBRANCH  17  21
BRANCH  18  23
HETATM   23  O7  UNL     1      -1.431  52.615 -13.082  1.00  0.00    -0.388 OA
HETATM   24  H21 UNL     1      -0.495  52.903 -12.984  1.00  0.00     0.210 HD
ENDBRANCH  18  23
ENDBRANCH  12  13
ENDBRANCH  10  12
ENDBRANCH   1  10
BRANCH   1  25
HETATM   25  C14 UNL     1       3.068  54.416 -10.096  1.00  0.00     0.009 C 
HETATM   26  C15 UNL     1       2.980  55.961 -10.264  1.00  0.00     0.007 C 
HETATM   27  C16 UNL     1       3.939  56.585  -9.232  1.00  0.00     0.015 C 
HETATM   28  C17 UNL     1       4.838  55.421  -8.772  1.00  0.00    -0.013 C 
HETATM   29  C18 UNL     1       5.970  55.266  -9.837  1.00  0.00     0.021 C 
HETATM   30  C19 UNL     1       5.577  55.531  -7.444  1.00  0.00    -0.068 C 
HETATM   31  C23 UNL     1       3.781  54.242  -8.719  1.00  0.00    -0.028 C 
HETATM   32  C20 UNL     1       5.886  54.411  -6.740  1.00  0.00    -0.068 C 
HETATM   33  C35 UNL     1       6.001  56.917  -7.025  1.00  0.00     0.036 C 
HETATM   34  C21 UNL     1       5.455  53.021  -7.233  1.00  0.00     0.036 C 
HETATM   35  C25 UNL     1       6.655  54.471  -5.396  1.00  0.00    -0.015 C 
HETATM   36  C22 UNL     1       4.576  52.950  -8.505  1.00  0.00     0.015 C 
HETATM   37  C26 UNL     1       5.602  54.352  -4.271  1.00  0.00     0.020 C 
HETATM   38  C27 UNL     1       7.684  53.322  -5.296  1.00  0.00     0.021 C 
HETATM   39  C33 UNL     1       7.492  55.792  -5.313  1.00  0.00     0.013 C 
HETATM   40  C28 UNL     1       8.555  53.331  -4.050  1.00  0.00     0.080 C 
HETATM   41  C29 UNL     1       8.614  54.632  -3.287  1.00  0.00     0.135 C 
HETATM   42  O8  UNL     1       8.958  54.603  -2.100  1.00  0.00    -0.297 OA
HETATM   43  C30 UNL     1       8.363  55.959  -4.017  1.00  0.00     0.018 C 
HETATM   44  C31 UNL     1       9.759  56.492  -4.409  1.00  0.00     0.023 C 
HETATM   45  C32 UNL     1       7.752  56.947  -2.995  1.00  0.00     0.023 C 
HETATM   46  C34 UNL     1       6.618  57.012  -5.634  1.00  0.00     0.011 C 
HETATM   47  C24 UNL     1       2.763  54.392  -7.548  1.00  0.00     0.016 C 
ENDBRANCH   1  25
TORSDOF 11
ENDMDL
