MODEL 1
REMARK minimizedAffinity -9.6569376
REMARK  8 active torsions:
REMARK  status: ('A' for Active; 'I' for Inactive)
REMARK    1  A    between atoms: C2_2  and  C3_3 
REMARK    2  A    between atoms: C2_2  and  C9_12 
REMARK    3  A    between atoms: C3_3  and  C4_4 
REMARK    4  A    between atoms: C4_4  and  C5_5 
REMARK    5  A    between atoms: C6_6  and  C7_7 
REMARK    6  A    between atoms: C6_6  and  C8_9 
REMARK    7  A    between atoms: C7_7  and  O1_8 
REMARK    8  A    between atoms: C8_9  and  O3_11 
ROOT
HETATM    1  C9  UNL     1       0.950   7.216  12.402  1.00  0.00    -0.002 C 
HETATM    2  C10 UNL     1       0.794   8.230  13.571  1.00  0.00     0.006 C 
HETATM    3  C11 UNL     1      -0.592   7.978  14.210  1.00  0.00     0.011 C 
HETATM    4  C12 UNL     1      -1.081   6.657  13.592  1.00  0.00    -0.032 C 
HETATM    5  C13 UNL     1      -0.423   5.503  14.429  1.00  0.00     0.016 C 
HETATM    6  C14 UNL     1      -2.619   6.445  13.538  1.00  0.00     0.004 C 
HETATM    7  C15 UNL     1      -3.297   6.496  14.919  1.00  0.00     0.007 C 
HETATM    8  C16 UNL     1      -4.768   6.056  14.938  1.00  0.00     0.007 C 
HETATM    9  C17 UNL     1      -5.361   5.654  13.574  1.00  0.00     0.010 C 
HETATM   10  C18 UNL     1      -6.839   5.111  13.640  1.00  0.00     0.018 C 
HETATM   11  C19 UNL     1      -7.728   5.833  12.601  1.00  0.00     0.023 C 
HETATM   12  C20 UNL     1      -7.525   5.327  15.007  1.00  0.00     0.023 C 
HETATM   13  C21 UNL     1      -6.881   3.612  13.305  1.00  0.00     0.135 C 
HETATM   14  O4  UNL     1      -7.534   2.808  13.977  1.00  0.00    -0.297 OA
HETATM   15  C22 UNL     1      -6.180   3.132  12.053  1.00  0.00     0.080 C 
HETATM   16  C23 UNL     1      -5.076   4.074  11.600  1.00  0.00     0.018 C 
HETATM   17  C24 UNL     1      -4.412   4.717  12.796  1.00  0.00    -0.026 A 
HETATM   18  C25 UNL     1      -3.341   3.892  13.482  1.00  0.00     0.021 A 
HETATM   19  C26 UNL     1      -2.940   5.159  12.742  1.00  0.00    -0.027 A 
HETATM   20  C27 UNL     1      -2.190   5.002  11.408  1.00  0.00     0.011 C 
HETATM   21  C28 UNL     1      -0.713   5.436  11.425  1.00  0.00     0.011 C 
HETATM   22  C29 UNL     1      -0.524   6.790  12.124  1.00  0.00    -0.032 C 
HETATM   23  C30 UNL     1      -1.226   7.880  11.259  1.00  0.00     0.016 C 
ENDROOT
BRANCH   1  24
HETATM   24  C2  UNL     1       1.831   7.662  11.198  1.00  0.00    -0.014 C 
HETATM   25  C1  UNL     1       3.199   8.256  11.550  1.00  0.00     0.010 C 
BRANCH  24  26
HETATM   26  C3  UNL     1       2.022   6.518  10.161  1.00  0.00     0.008 C 
BRANCH  26  27
HETATM   27  C4  UNL     1       2.108   6.962   8.696  1.00  0.00     0.028 C 
BRANCH  27  28
HETATM   28  C5  UNL     1       2.707   5.936   7.768  1.00  0.00    -0.011 C 
HETATM   29  C6  UNL     1       3.432   4.839   8.086  1.00  0.00     0.035 C 
BRANCH  29  30
HETATM   30  C7  UNL     1       3.855   4.390   9.460  1.00  0.00     0.209 C 
BRANCH  30  31
HETATM   31  O1  UNL     1       3.117   3.252   9.901  1.00  0.00    -0.396 OA
HETATM   32  H12 UNL     1       2.177   3.440   9.723  1.00  0.00     0.209 HD
ENDBRANCH  30  31
ENDBRANCH  29  30
BRANCH  29  33
HETATM   33  C8  UNL     1       3.871   3.916   7.004  1.00  0.00     0.173 C 
HETATM   34  O2  UNL     1       3.501   3.950   5.841  1.00  0.00    -0.646 OA
BRANCH  33  35
HETATM   35  O3  UNL     1       4.717   2.956   7.426  1.00  0.00    -0.773 OA
HETATM   36  H13 UNL     1       4.907   2.442   6.613  1.00  0.00     0.167 HD
ENDBRANCH  33  35
ENDBRANCH  29  33
ENDBRANCH  27  28
ENDBRANCH  26  27
ENDBRANCH  24  26
ENDBRANCH   1  24
TORSDOF 8
ENDMDL
