MODEL 1
REMARK minimizedAffinity -9.22499084
REMARK CNNscore 0.576058924
REMARK CNNaffinity 7.35473061
REMARK  10 active torsions:
REMARK  status: ('A' for Active; 'I' for Inactive)
REMARK    1  A    between atoms: C3_3  and  O1_4 
REMARK    2  A    between atoms: N1_14  and  O2_16 
REMARK    3  A    between atoms: O2_16  and  C13_17 
REMARK    4  A    between atoms: C13_17  and  C14_18 
REMARK       I    between atoms: C14_18  and  N2_20 
REMARK    5  A    between atoms: N2_20  and  C15_21 
REMARK    6  A    between atoms: C15_21  and  C16_22 
REMARK       I    between atoms: C16_22  and  N3_24 
REMARK    7  A    between atoms: N3_24  and  C17_25 
REMARK    8  A    between atoms: C17_25  and  C18_26 
REMARK    9  A    between atoms: C17_25  and  C19_29 
REMARK   10  A    between atoms: C18_26  and  O6_28 
ROOT
HETATM    1  C1  UNL     1      -5.276  50.345 -10.299  1.00  0.00     0.015 C 
HETATM    2  C2  UNL     1      -4.297  50.724 -10.885  1.00  0.00    -0.078 C 
HETATM    3  C3  UNL     1      -3.117  51.208 -11.621  1.00  0.00     0.128 C 
HETATM    4  C4  UNL     1      -2.476  52.417 -10.942  1.00  0.00     0.052 C 
HETATM    5  C5  UNL     1      -1.145  52.537 -11.673  1.00  0.00     0.010 C 
HETATM    6  C6  UNL     1      -0.660  51.088 -11.876  1.00  0.00     0.002 C 
HETATM    7  C7  UNL     1       0.169  50.838 -13.164  1.00  0.00    -0.004 C 
HETATM    8  C8  UNL     1       1.278  51.896 -13.316  1.00  0.00     0.010 C 
HETATM    9  C9  UNL     1       2.115  51.681 -14.568  1.00  0.00     0.035 C 
HETATM   10  C10 UNL     1       1.251  51.622 -15.806  1.00  0.00    -0.069 C 
HETATM   11  C11 UNL     1       1.529  52.410 -16.861  1.00  0.00     0.030 C 
HETATM   12  C12 UNL     1       0.786  52.291 -18.143  1.00  0.00     0.032 C 
HETATM   13  N1  UNL     1       1.042  53.161 -19.076  1.00  0.00    -0.271 N 
ATOM     14  H1  UNL     1       1.705  53.930 -18.972  1.00  0.00     0.194 HD
HETATM   15  C22 UNL     1      -0.172  51.125 -18.287  1.00  0.00     0.060 C 
HETATM   16  C23 UNL     1      -0.873  50.864 -16.961  1.00  0.00     0.020 C 
HETATM   17  C24 UNL     1       0.104  50.608 -15.776  1.00  0.00    -0.016 C 
HETATM   18  C25 UNL     1       0.738  49.203 -15.928  1.00  0.00     0.020 C 
HETATM   19  C26 UNL     1      -0.714  50.763 -14.432  1.00  0.00     0.002 C 
HETATM   20  C27 UNL     1      -1.845  49.718 -14.291  1.00  0.00     0.007 C 
HETATM   21  C28 UNL     1      -2.064  49.174 -12.879  1.00  0.00     0.014 C 
HETATM   22  C29 UNL     1      -1.933  50.188 -11.727  1.00  0.00     0.003 C 
HETATM   23  C30 UNL     1      -1.776  49.366 -10.417  1.00  0.00     0.020 C 
ENDROOT
BRANCH   3  24
HETATM   24  O1  UNL     1      -3.549  51.630 -12.914  1.00  0.00    -0.377 OA
HETATM   25  H2  UNL     1      -4.345  52.179 -12.791  1.00  0.00     0.211 HD
ENDBRANCH   3  24
BRANCH  13  26
HETATM   26  O2  UNL     1       0.301  52.918 -20.243  1.00  0.00    -0.271 OA
BRANCH  26  27
HETATM   27  C13 UNL     1      -0.537  51.785 -20.042  1.00  0.00     0.303 C 
BRANCH  27  28
HETATM   28  C14 UNL     1      -1.684  51.698 -21.049  1.00  0.00     0.244 C 
HETATM   29  O3  UNL     1      -2.757  51.160 -20.778  1.00  0.00    -0.271 OA
HETATM   30  N2  UNL     1      -1.426  52.281 -22.268  1.00  0.00    -0.350 N 
HETATM   31  H16 UNL     1      -0.455  52.527 -22.456  1.00  0.00     0.163 HD
BRANCH  30  32
HETATM   32  C15 UNL     1      -2.327  52.111 -23.387  1.00  0.00     0.225 C 
BRANCH  32  33
HETATM   33  C16 UNL     1      -1.612  52.517 -24.681  1.00  0.00     0.236 C 
HETATM   34  O4  UNL     1      -2.204  52.615 -25.755  1.00  0.00    -0.272 OA
HETATM   35  N3  UNL     1      -0.276  52.818 -24.524  1.00  0.00    -0.345 N 
HETATM   36  H19 UNL     1       0.174  52.515 -23.666  1.00  0.00     0.163 HD
BRANCH  35  37
HETATM   37  C17 UNL     1       0.589  53.114 -25.671  1.00  0.00     0.185 C 
BRANCH  37  38
HETATM   38  C18 UNL     1       0.032  54.356 -26.374  1.00  0.00     0.163 C 
HETATM   39  O5  UNL     1      -0.592  54.375 -27.426  1.00  0.00    -0.648 OA
BRANCH  38  40
HETATM   40  O6  UNL     1       0.316  55.507 -25.733  1.00  0.00    -0.775 OA
HETATM   41  H21 UNL     1      -0.112  56.199 -26.279  1.00  0.00     0.167 HD
ENDBRANCH  38  40
ENDBRANCH  37  38
BRANCH  37  42
HETATM   42  C19 UNL     1       0.698  51.885 -26.601  1.00  0.00     0.010 C 
HETATM   43  C20 UNL     1       1.969  51.076 -26.326  1.00  0.00     0.012 C 
HETATM   44  C21 UNL     1       0.618  52.226 -28.092  1.00  0.00     0.012 C 
ENDBRANCH  37  42
ENDBRANCH  35  37
ENDBRANCH  32  33
ENDBRANCH  30  32
ENDBRANCH  27  28
ENDBRANCH  26  27
ENDBRANCH  13  26
TORSDOF 10
ENDMDL
