MODEL 1
REMARK minimizedAffinity -9.47389793
REMARK CNNscore 0.686431766
REMARK CNNaffinity 7.27136612
REMARK  4 active torsions:
REMARK  status: ('A' for Active; 'I' for Inactive)
REMARK    1  A    between atoms: C4_4  and  C5_5 
REMARK    2  A    between atoms: C5_5  and  C6_6 
REMARK    3  A    between atoms: C6_6  and  C7_7 
REMARK    4  A    between atoms: C7_7  and  C9_9 
ROOT
HETATM    1  C9  UNL     1       0.323   7.087  10.138  1.00  0.00    -0.002 C 
HETATM    2  C10 UNL     1      -0.123   8.537  10.359  1.00  0.00     0.006 C 
HETATM    3  C11 UNL     1      -1.004   8.473  11.591  1.00  0.00     0.011 C 
HETATM    4  C12 UNL     1      -0.226   7.564  12.570  1.00  0.00    -0.032 C 
HETATM    5  C13 UNL     1       0.821   8.476  13.281  1.00  0.00     0.016 C 
HETATM    6  C14 UNL     1      -1.160   6.938  13.684  1.00  0.00     0.004 C 
HETATM    7  C15 UNL     1      -1.955   8.029  14.437  1.00  0.00     0.007 C 
HETATM    8  C16 UNL     1      -2.953   7.477  15.444  1.00  0.00     0.007 C 
HETATM    9  C17 UNL     1      -4.065   6.616  14.819  1.00  0.00     0.010 C 
HETATM   10  C18 UNL     1      -5.336   7.392  14.327  1.00  0.00     0.018 C 
HETATM   11  C19 UNL     1      -5.999   8.153  15.496  1.00  0.00     0.023 C 
HETATM   12  C20 UNL     1      -5.059   8.387  13.190  1.00  0.00     0.023 C 
HETATM   13  C21 UNL     1      -6.382   6.385  13.813  1.00  0.00     0.135 C 
HETATM   14  O1  UNL     1      -7.563   6.696  13.643  1.00  0.00    -0.297 OA
HETATM   15  C22 UNL     1      -5.929   4.975  13.534  1.00  0.00     0.080 C 
HETATM   16  C23 UNL     1      -4.573   5.019  12.863  1.00  0.00     0.018 C 
HETATM   17  C24 UNL     1      -3.513   5.643  13.762  1.00  0.00    -0.026 A 
HETATM   18  C25 UNL     1      -2.404   4.728  14.225  1.00  0.00     0.021 A 
HETATM   19  C26 UNL     1      -2.082   5.803  13.198  1.00  0.00    -0.027 A 
HETATM   20  C27 UNL     1      -1.755   5.264  11.822  1.00  0.00     0.011 C 
HETATM   21  C28 UNL     1      -0.251   5.121  11.670  1.00  0.00     0.011 C 
HETATM   22  C29 UNL     1       0.477   6.490  11.609  1.00  0.00    -0.032 C 
HETATM   23  C30 UNL     1       1.943   6.216  12.014  1.00  0.00     0.016 C 
ENDROOT
BRANCH   1  24
HETATM   24  C7  UNL     1       1.513   6.946   9.134  1.00  0.00    -0.014 C 
HETATM   25  C8  UNL     1       1.558   8.133   8.159  1.00  0.00     0.010 C 
BRANCH  24  26
HETATM   26  C6  UNL     1       2.877   6.830   9.872  1.00  0.00     0.008 C 
BRANCH  26  27
HETATM   27  C5  UNL     1       3.637   5.522   9.595  1.00  0.00     0.028 C 
BRANCH  27  28
HETATM   28  C4  UNL     1       3.377   5.041   8.192  1.00  0.00    -0.025 C 
HETATM   29  C2  UNL     1       3.935   3.996   7.549  1.00  0.00    -0.091 C 
HETATM   30  C1  UNL     1       3.532   3.671   6.133  1.00  0.00     0.042 C 
HETATM   31  C3  UNL     1       4.969   3.062   8.117  1.00  0.00     0.042 C 
ENDBRANCH  27  28
ENDBRANCH  26  27
ENDBRANCH  24  26
ENDBRANCH   1  24
TORSDOF 4
ENDMDL
