MODEL 1
REMARK minimizedAffinity -7.37422848
REMARK CNNscore 0.527770996
REMARK CNNaffinity 6.69431734
REMARK  7 active torsions:
REMARK  status: ('A' for Active; 'I' for Inactive)
REMARK    1  A    between atoms: C2_2  and  C30_34 
REMARK    2  A    between atoms: C3_3  and  C4_4 
REMARK    3  A    between atoms: C4_4  and  C5_5 
REMARK    4  A    between atoms: C5_5  and  C6_6 
REMARK    5  A    between atoms: C6_6  and  C8_8 
REMARK    6  A    between atoms: C15_16  and  O2_17 
REMARK    7  A    between atoms: C30_34  and  O6_36 
ROOT
HETATM    1  C8  UNL     1      -1.504  53.574  -9.559  1.00  0.00     0.006 C 
HETATM    2  C9  UNL     1      -1.809  53.256  -8.076  1.00  0.00     0.085 C 
HETATM    3  C10 UNL     1      -0.562  53.746  -7.343  1.00  0.00     0.141 C 
HETATM    4  O1  UNL     1      -0.372  53.519  -6.158  1.00  0.00    -0.297 OA
HETATM    5  C11 UNL     1       0.378  54.504  -8.295  1.00  0.00     0.055 C 
HETATM    6  C12 UNL     1      -0.129  55.970  -8.323  1.00  0.00     0.030 C 
HETATM    7  C13 UNL     1       1.871  54.548  -8.104  1.00  0.00     0.010 C 
HETATM    8  C14 UNL     1       2.752  54.565  -9.137  1.00  0.00    -0.032 C 
HETATM    9  C15 UNL     1       2.205  54.568 -10.581  1.00  0.00     0.149 C 
HETATM   10  C16 UNL     1       0.684  54.331 -10.779  1.00  0.00     0.047 C 
HETATM   11  C17 UNL     1       0.057  53.632  -9.573  1.00  0.00    -0.018 C 
HETATM   12  C18 UNL     1       0.643  52.183  -9.500  1.00  0.00     0.017 C 
HETATM   13  C19 UNL     1       4.317  54.527  -8.934  1.00  0.00    -0.012 C 
HETATM   14  C20 UNL     1       4.957  55.639  -9.795  1.00  0.00     0.021 C 
HETATM   15  C21 UNL     1       4.797  53.131  -9.419  1.00  0.00     0.021 C 
HETATM   16  C22 UNL     1       6.277  52.868  -9.205  1.00  0.00     0.080 C 
HETATM   17  C23 UNL     1       6.633  52.998  -7.749  1.00  0.00     0.135 C 
HETATM   18  O3  UNL     1       7.288  52.115  -7.191  1.00  0.00    -0.297 OA
HETATM   19  C24 UNL     1       6.254  54.306  -7.045  1.00  0.00     0.018 C 
HETATM   20  C25 UNL     1       6.441  54.113  -5.519  1.00  0.00     0.023 C 
HETATM   21  C26 UNL     1       7.293  55.374  -7.453  1.00  0.00     0.023 C 
HETATM   22  C27 UNL     1       4.767  54.724  -7.415  1.00  0.00     0.020 C 
HETATM   23  C28 UNL     1       3.745  54.039  -6.488  1.00  0.00     0.090 C 
HETATM   24  C29 UNL     1       2.406  54.663  -6.732  1.00  0.00     0.157 C 
HETATM   25  O4  UNL     1       1.818  55.301  -5.866  1.00  0.00    -0.293 OA
ENDROOT
BRANCH   1  26
HETATM   26  C6  UNL     1      -2.187  52.676 -10.631  1.00  0.00    -0.013 C 
HETATM   27  C7  UNL     1      -1.368  51.479 -11.128  1.00  0.00     0.010 C 
BRANCH  26  28
HETATM   28  C5  UNL     1      -3.594  52.207 -10.172  1.00  0.00     0.008 C 
BRANCH  28  29
HETATM   29  C4  UNL     1      -4.008  50.810 -10.638  1.00  0.00     0.028 C 
BRANCH  29  30
HETATM   30  C3  UNL     1      -5.465  50.553 -10.362  1.00  0.00    -0.013 C 
HETATM   31  C2  UNL     1      -6.155  49.439 -10.689  1.00  0.00     0.008 C 
HETATM   32  C1  UNL     1      -5.583  48.292 -11.470  1.00  0.00     0.055 C 
BRANCH  31  33
HETATM   33  C30 UNL     1      -7.583  49.283 -10.305  1.00  0.00     0.171 C 
HETATM   34  O5  UNL     1      -8.285  48.325 -10.574  1.00  0.00    -0.646 OA
BRANCH  33  35
HETATM   35  O6  UNL     1      -8.078  50.318  -9.606  1.00  0.00    -0.773 OA
HETATM   36  H42 UNL     1      -9.005  50.053  -9.433  1.00  0.00     0.167 HD
ENDBRANCH  33  35
ENDBRANCH  31  33
ENDBRANCH  29  30
ENDBRANCH  28  29
ENDBRANCH  26  28
ENDBRANCH   1  26
BRANCH   9  37
HETATM   37  O2  UNL     1       2.492  55.834 -11.168  1.00  0.00    -0.391 OA
HETATM   38  H20 UNL     1       2.267  55.781 -12.111  1.00  0.00     0.210 HD
ENDBRANCH   9  37
TORSDOF 7
ENDMDL
