MODEL 1
REMARK minimizedAffinity -9.58195305
REMARK CNNscore 0.358362615
REMARK CNNaffinity 7.13182831
REMARK  9 active torsions:
REMARK  status: ('A' for Active; 'I' for Inactive)
REMARK    1  A    between atoms: C2_2  and  C30_36 
REMARK    2  A    between atoms: C3_3  and  C4_4 
REMARK    3  A    between atoms: C4_4  and  C5_5 
REMARK    4  A    between atoms: C4_4  and  N1_8 
REMARK       I    between atoms: N1_8  and  C9_10 
REMARK    5  A    between atoms: C9_10  and  C10_12 
REMARK    6  A    between atoms: C10_12  and  N2_13 
REMARK    7  A    between atoms: C10_12  and  C26_32 
REMARK       I    between atoms: N2_13  and  C11_14 
REMARK    8  A    between atoms: C11_14  and  C12_16 
REMARK    9  A    between atoms: C30_36  and  O4_38 
ROOT
HETATM    1  N2  UNL     1      -0.604   7.563  12.554  1.00  0.00    -0.345 N 
HETATM    2  C11 UNL     1      -0.531   6.245  12.992  1.00  0.00     0.253 C 
HETATM    3  O2  UNL     1       0.405   5.841  13.674  1.00  0.00    -0.271 OA
HETATM    4  H17 UNL     1      -1.231   7.740  11.783  1.00  0.00     0.163 HD
ENDROOT
BRANCH   1   5
HETATM    5  C10 UNL     1       0.562   8.445  12.696  1.00  0.00     0.184 C 
BRANCH   5   6
HETATM    6  C9  UNL     1       1.545   8.461  11.476  1.00  0.00     0.243 C 
HETATM    7  N1  UNL     1       1.658   7.394  10.588  1.00  0.00    -0.346 N 
HETATM    8  C8  UNL     1       0.982   6.111  10.727  1.00  0.00     0.153 C 
HETATM    9  O1  UNL     1       2.315   9.429  11.403  1.00  0.00    -0.271 OA
BRANCH   7  10
HETATM   10  C4  UNL     1       2.527   7.493   9.390  1.00  0.00     0.113 C 
BRANCH  10  11
HETATM   11  C3  UNL     1       3.824   8.188   9.737  1.00  0.00     0.012 C 
HETATM   12  C2  UNL     1       4.890   7.676  10.391  1.00  0.00     0.010 C 
HETATM   13  C1  UNL     1       5.036   6.269  10.888  1.00  0.00     0.055 C 
BRANCH  12  14
HETATM   14  C30 UNL     1       6.032   8.601  10.618  1.00  0.00     0.171 C 
HETATM   15  O3  UNL     1       7.100   8.339  11.140  1.00  0.00    -0.646 OA
BRANCH  14  16
HETATM   16  O4  UNL     1       5.783   9.839  10.158  1.00  0.00    -0.773 OA
HETATM   17  H44 UNL     1       6.608  10.324  10.374  1.00  0.00     0.167 HD
ENDBRANCH  14  16
ENDBRANCH  12  14
ENDBRANCH  10  11
BRANCH  10  18
HETATM   18  C5  UNL     1       1.856   7.979   8.070  1.00  0.00     0.004 C 
HETATM   19  C6  UNL     1       2.043   6.964   6.938  1.00  0.00     0.012 C 
HETATM   20  C7  UNL     1       0.390   8.401   8.145  1.00  0.00     0.012 C 
ENDBRANCH  10  18
ENDBRANCH   7  10
ENDBRANCH   5   6
BRANCH   5  21
HETATM   21  C26 UNL     1       1.287   8.293  14.086  1.00  0.00    -0.022 C 
HETATM   22  C27 UNL     1       1.915   9.599  14.594  1.00  0.00     0.017 C 
HETATM   23  C28 UNL     1       0.304   7.787  15.165  1.00  0.00     0.017 C 
HETATM   24  C29 UNL     1       2.408   7.232  13.969  1.00  0.00     0.017 C 
ENDBRANCH   5  21
ENDBRANCH   1   5
BRANCH   2  25
HETATM   25  C12 UNL     1      -1.707   5.359  12.493  1.00  0.00     0.326 C 
HETATM   26  N3  UNL     1      -1.308   3.909  12.440  1.00  0.00     0.104 N 
HETATM   27  C13 UNL     1       0.017   3.672  11.869  1.00  0.00     0.311 C 
HETATM   28  C14 UNL     1      -2.309   3.121  11.692  1.00  0.00     0.330 C 
HETATM   29  C15 UNL     1      -3.689   3.495  12.098  1.00  0.00     0.046 A 
HETATM   30  C16 UNL     1      -4.079   4.604  12.827  1.00  0.00    -0.011 A 
HETATM   31  N4  UNL     1      -4.803   2.770  11.783  1.00  0.00    -0.357 N 
HETATM   32  C17 UNL     1      -5.499   4.522  12.989  1.00  0.00    -0.000 A 
HETATM   33  C23 UNL     1      -3.036   5.592  13.343  1.00  0.00     0.022 C 
HETATM   34  C18 UNL     1      -6.476   5.290  13.657  1.00  0.00     0.014 A 
HETATM   35  C22 UNL     1      -5.922   3.376  12.307  1.00  0.00     0.043 A 
HETATM   36  C19 UNL     1      -7.822   4.909  13.598  1.00  0.00     0.001 A 
HETATM   37  C20 UNL     1      -8.209   3.775  12.893  1.00  0.00     0.002 A 
HETATM   38  C21 UNL     1      -7.265   2.984  12.237  1.00  0.00     0.030 A 
HETATM   39  C24 UNL     1      -3.495   7.048  13.136  1.00  0.00     0.023 C 
HETATM   40  C25 UNL     1      -2.840   5.331  14.853  1.00  0.00     0.023 C 
HETATM   41  H28 UNL     1      -4.815   1.903  11.262  1.00  0.00     0.166 HD
ENDBRANCH   2  25
TORSDOF 9
ENDMDL
