MODEL 1
REMARK minimizedAffinity -5.91607428
REMARK CNNscore 0.618145406
REMARK CNNaffinity 6.01779747
REMARK  6 active torsions:
REMARK  status: ('A' for Active; 'I' for Inactive)
REMARK    1  A    between atoms: O1_2  and  C2_3 
REMARK    2  A    between atoms: C2_3  and  C3_5 
REMARK    3  A    between atoms: C9_11  and  O3_12 
REMARK    4  A    between atoms: C11_14  and  C12_15 
REMARK    5  A    between atoms: C12_15  and  O4_17 
REMARK    6  A    between atoms: C30_36  and  O7_37 
ROOT
HETATM    1  C3  UNL     1       0.621  16.215   2.446  1.00  0.00     0.087 C 
HETATM    2  C4  UNL     1       1.013  17.488   1.614  1.00  0.00     0.024 C 
HETATM    3  C5  UNL     1       2.515  17.812   1.662  1.00  0.00     0.011 C 
HETATM    4  C6  UNL     1       3.493  16.700   1.162  1.00  0.00    -0.033 C 
HETATM    5  C7  UNL     1       3.452  16.739  -0.385  1.00  0.00     0.016 C 
HETATM    6  C8  UNL     1       3.024  15.274   1.683  1.00  0.00     0.032 C 
HETATM    7  C9  UNL     1       3.846  14.821   2.902  1.00  0.00     0.124 C 
HETATM    8  C10 UNL     1       5.305  14.642   2.490  1.00  0.00     0.046 C 
HETATM    9  C11 UNL     1       6.017  15.926   1.946  1.00  0.00     0.014 C 
HETATM   10  C14 UNL     1       6.738  15.508   0.625  1.00  0.00     0.191 C 
HETATM   11  O5  UNL     1       7.857  16.340   0.257  1.00  0.00    -0.321 OA
HETATM   12  C15 UNL     1       7.734  17.619  -0.138  1.00  0.00     0.258 C 
HETATM   13  O6  UNL     1       8.717  18.326  -0.338  1.00  0.00    -0.265 OA
HETATM   14  C16 UNL     1       6.340  18.139  -0.316  1.00  0.00     0.111 C 
HETATM   15  C17 UNL     1       5.610  18.343   1.007  1.00  0.00     0.016 C 
HETATM   16  C18 UNL     1       4.981  17.093   1.692  1.00  0.00     0.008 C 
HETATM   17  C19 UNL     1       1.432  15.010   1.783  1.00  0.00    -0.017 C 
HETATM   18  C20 UNL     1       0.985  14.724   0.290  1.00  0.00     0.017 C 
HETATM   19  C21 UNL     1       1.069  13.682   2.514  1.00  0.00     0.012 C 
HETATM   20  C22 UNL     1      -0.432  13.346   2.519  1.00  0.00     0.013 C 
HETATM   21  C23 UNL     1      -1.393  14.489   2.951  1.00  0.00    -0.008 C 
HETATM   22  C24 UNL     1      -2.805  14.088   2.409  1.00  0.00     0.018 C 
HETATM   23  C25 UNL     1      -1.515  14.440   4.504  1.00  0.00     0.039 C 
HETATM   24  C26 UNL     1      -2.018  15.686   5.161  1.00  0.00    -0.023 C 
HETATM   25  C27 UNL     1      -2.155  16.864   4.538  1.00  0.00    -0.085 C 
HETATM   26  C28 UNL     1      -2.646  18.091   5.254  1.00  0.00     0.043 C 
HETATM   27  C29 UNL     1      -1.830  17.044   3.082  1.00  0.00     0.073 C 
HETATM   28  C30 UNL     1      -0.964  15.929   2.405  1.00  0.00     0.086 C 
ENDROOT
BRANCH   1  29
HETATM   29  C2  UNL     1       0.967  16.615   3.913  1.00  0.00     0.271 C 
HETATM   30  O2  UNL     1       0.977  17.778   4.315  1.00  0.00    -0.264 OA
BRANCH  29  31
HETATM   31  O1  UNL     1       1.183  15.561   4.738  1.00  0.00    -0.326 OA
HETATM   32  C1  UNL     1       1.364  15.918   6.112  1.00  0.00     0.213 C 
ENDBRANCH  29  31
ENDBRANCH   1  29
BRANCH  28  33
HETATM   33  O7  UNL     1      -1.333  16.015   1.000  1.00  0.00    -0.387 OA
HETATM   34  H46 UNL     1      -2.298  15.964   0.915  1.00  0.00     0.210 HD
ENDBRANCH  28  33
BRANCH   7  35
HETATM   35  O3  UNL     1       3.762  15.740   3.971  1.00  0.00    -0.395 OA
HETATM   36  H13 UNL     1       4.129  15.298   4.758  1.00  0.00     0.210 HD
ENDBRANCH   7  35
BRANCH   9  37
HETATM   37  C12 UNL     1       7.146  16.357   2.975  1.00  0.00     0.125 C 
HETATM   38  C13 UNL     1       6.806  17.483   3.952  1.00  0.00     0.040 C 
BRANCH  37  39
HETATM   39  O4  UNL     1       7.511  15.209   3.755  1.00  0.00    -0.395 OA
HETATM   40  H20 UNL     1       8.104  15.495   4.474  1.00  0.00     0.210 HD
ENDBRANCH  37  39
ENDBRANCH   9  37
TORSDOF 6
ENDMDL
