MODEL 1
REMARK minimizedAffinity -9.51861191
REMARK CNNscore 0.541509628
REMARK CNNaffinity 7.1342206
REMARK  8 active torsions:
REMARK  status: ('A' for Active; 'I' for Inactive)
REMARK    1  A    between atoms: C4_4  and  C5_5 
REMARK    2  A    between atoms: C5_5  and  C6_6 
REMARK    3  A    between atoms: C12_14  and  O3_15 
REMARK    4  A    between atoms: C20_24  and  O5_25 
REMARK    5  A    between atoms: C27_33  and  C28_34 
REMARK    6  A    between atoms: C28_34  and  C29_35 
REMARK    7  A    between atoms: C30_36  and  C32_38 
REMARK    8  A    between atoms: C32_38  and  O8_40 
ROOT
HETATM    1  C6  UNL     1      -3.669   5.646  14.252  1.00  0.00     0.014 A 
HETATM    2  C7  UNL     1      -2.308   5.859  13.949  1.00  0.00     0.096 A 
HETATM    3  O1  UNL     1      -1.604   6.666  14.798  1.00  0.00    -0.333 OA
HETATM    4  C8  UNL     1      -0.254   7.043  14.488  1.00  0.00     0.126 C 
HETATM    5  C9  UNL     1       0.501   5.918  13.764  1.00  0.00     0.129 C 
HETATM    6  C10 UNL     1      -0.302   5.353  12.624  1.00  0.00     0.174 C 
HETATM    7  O2  UNL     1       0.214   4.888  11.609  1.00  0.00    -0.292 OA
HETATM    8  C11 UNL     1      -1.754   5.259  12.820  1.00  0.00     0.078 A 
HETATM    9  C12 UNL     1      -2.554   4.524  11.932  1.00  0.00     0.095 A 
HETATM   10  C13 UNL     1      -3.920   4.355  12.186  1.00  0.00     0.032 A 
HETATM   11  C14 UNL     1      -4.469   4.906  13.352  1.00  0.00     0.092 A 
HETATM   12  O4  UNL     1      -5.786   4.757  13.693  1.00  0.00    -0.335 OA
HETATM   13  C15 UNL     1      -6.680   4.017  12.839  1.00  0.00     0.078 A 
HETATM   14  C16 UNL     1      -7.246   2.876  13.693  1.00  0.00     0.051 C 
HETATM   15  C17 UNL     1      -7.809   4.979  12.452  1.00  0.00     0.051 C 
HETATM   16  C18 UNL     1      -6.063   3.446  11.589  1.00  0.00     0.012 A 
HETATM   17  C19 UNL     1      -4.774   3.600  11.277  1.00  0.00     0.016 A 
HETATM   18  C20 UNL     1       1.912   6.369  13.356  1.00  0.00     0.144 C 
HETATM   19  C21 UNL     1       2.317   7.570  14.213  1.00  0.00     0.089 C 
HETATM   20  C22 UNL     1       1.964   7.296  15.680  1.00  0.00     0.025 C 
HETATM   21  C23 UNL     1       0.422   7.352  15.872  1.00  0.00     0.060 C 
HETATM   22  C24 UNL     1      -0.140   8.774  16.211  1.00  0.00     0.062 C 
HETATM   23  C25 UNL     1      -1.414   8.707  17.066  1.00  0.00     0.046 C 
HETATM   24  C26 UNL     1       0.825   9.731  16.921  1.00  0.00     0.046 C 
HETATM   25  O6  UNL     1      -0.495   9.369  14.942  1.00  0.00    -0.358 OA
HETATM   26  C27 UNL     1      -0.077   8.470  13.884  1.00  0.00     0.158 C 
HETATM   27  C33 UNL     1       1.452   8.730  13.753  1.00  0.00     0.171 C 
HETATM   28  O9  UNL     1       1.946   9.804  13.414  1.00  0.00    -0.294 OA
ENDROOT
BRANCH  26  29
HETATM   29  C28 UNL     1      -0.754   8.828  12.552  1.00  0.00     0.077 C 
BRANCH  29  30
HETATM   30  C29 UNL     1      -2.214   8.469  12.411  1.00  0.00    -0.010 C 
HETATM   31  C30 UNL     1      -3.258   9.022  13.061  1.00  0.00     0.008 C 
HETATM   32  C31 UNL     1      -4.679   8.614  12.818  1.00  0.00     0.055 C 
BRANCH  31  33
HETATM   33  C32 UNL     1      -3.069  10.098  14.054  1.00  0.00     0.171 C 
HETATM   34  O7  UNL     1      -2.472  11.146  13.891  1.00  0.00    -0.646 OA
BRANCH  33  35
HETATM   35  O8  UNL     1      -3.675   9.798  15.214  1.00  0.00    -0.773 OA
HETATM   36  H38 UNL     1      -3.430  10.549  15.794  1.00  0.00     0.167 HD
ENDBRANCH  33  35
ENDBRANCH  31  33
ENDBRANCH  29  30
ENDBRANCH  26  29
BRANCH  18  37
HETATM   37  O5  UNL     1       2.010   6.750  11.991  1.00  0.00    -0.394 OA
HETATM   38  H21 UNL     1       1.771   5.974  11.437  1.00  0.00     0.210 HD
ENDBRANCH  18  37
BRANCH   1  39
HETATM   39  C5  UNL     1      -4.275   6.178  15.538  1.00  0.00     0.072 C 
BRANCH  39  40
HETATM   40  C4  UNL     1      -5.725   5.819  15.718  1.00  0.00    -0.020 C 
HETATM   41  C2  UNL     1      -6.784   6.645  15.819  1.00  0.00    -0.091 C 
HETATM   42  C1  UNL     1      -6.724   8.148  15.825  1.00  0.00     0.042 C 
HETATM   43  C3  UNL     1      -8.181   6.091  15.926  1.00  0.00     0.042 C 
ENDBRANCH  39  40
ENDBRANCH   1  39
BRANCH   9  44
HETATM   44  O3  UNL     1      -2.028   3.937  10.805  1.00  0.00    -0.359 OA
HETATM   45  H11 UNL     1      -1.069   4.144  10.751  1.00  0.00     0.217 HD
ENDBRANCH   9  44
TORSDOF 8
ENDMDL
