MODEL 1
REMARK minimizedAffinity -6.38451195
REMARK CNNscore 0.487599015
REMARK CNNaffinity 6.53129959
REMARK  12 active torsions:
REMARK  status: ('A' for Active; 'I' for Inactive)
REMARK    1  A    between atoms: O1_2  and  C2_3 
REMARK    2  A    between atoms: C2_3  and  C3_4 
REMARK    3  A    between atoms: C3_4  and  C4_5 
REMARK    4  A    between atoms: C4_5  and  N1_6 
REMARK    5  A    between atoms: N1_6  and  C5_7 
REMARK    6  A    between atoms: C5_7  and  C6_8 
REMARK    7  A    between atoms: C10_12  and  O2_13 
REMARK    8  A    between atoms: C24_29  and  O5_30 
REMARK    9  A    between atoms: C28_34  and  C29_35 
REMARK   10  A    between atoms: C35_41  and  O6_42 
REMARK   11  A    between atoms: C38_45  and  C39_46 
REMARK   12  A    between atoms: C40_48  and  O8_49 
ROOT
HETATM    1  C6  UNL     1      -0.689  15.622   5.424  1.00  0.00    -0.016 C 
HETATM    2  C7  UNL     1      -1.962  15.908   5.777  1.00  0.00    -0.013 C 
HETATM    3  C8  UNL     1      -3.094  15.992   4.785  1.00  0.00     0.021 C 
HETATM    4  C9  UNL     1      -3.449  17.424   4.402  1.00  0.00     0.051 C 
HETATM    5  C10 UNL     1      -4.266  17.311   3.099  1.00  0.00     0.098 C 
HETATM    6  C11 UNL     1      -3.532  16.142   2.308  1.00  0.00     0.002 C 
HETATM    7  C12 UNL     1      -2.506  16.653   1.219  1.00  0.00     0.013 C 
HETATM    8  C13 UNL     1      -1.371  17.635   1.529  1.00  0.00     0.001 C 
HETATM    9  C14 UNL     1      -0.021  17.023   1.902  1.00  0.00     0.004 C 
HETATM   10  C15 UNL     1       0.156  16.802   3.404  1.00  0.00     0.048 C 
HETATM   11  C16 UNL     1      -0.338  15.450   3.955  1.00  0.00     0.120 A 
HETATM   12  O3  UNL     1       0.724  14.500   3.782  1.00  0.00    -0.297 OA
HETATM   13  C17 UNL     1       0.322  13.499   2.961  1.00  0.00     0.284 A 
HETATM   14  O4  UNL     1       1.017  12.573   2.585  1.00  0.00    -0.260 OA
HETATM   15  C18 UNL     1      -1.091  13.667   2.644  1.00  0.00     0.089 A 
HETATM   16  C19 UNL     1      -1.472  14.798   3.238  1.00  0.00    -0.029 A 
HETATM   17  C20 UNL     1      -2.878  15.265   3.433  1.00  0.00     0.037 C 
HETATM   18  C21 UNL     1      -4.506  15.232   1.484  1.00  0.00     0.014 C 
HETATM   19  C22 UNL     1      -5.848  15.877   1.176  1.00  0.00     0.010 C 
HETATM   20  C23 UNL     1      -6.575  16.114   2.502  1.00  0.00     0.041 C 
HETATM   21  C24 UNL     1      -5.867  17.237   3.300  1.00  0.00     0.095 C 
HETATM   22  C25 UNL     1      -6.380  17.193   4.758  1.00  0.00     0.049 C 
HETATM   23  C26 UNL     1      -7.810  16.609   4.910  1.00  0.00     0.025 C 
HETATM   24  C27 UNL     1      -8.356  16.896   6.331  1.00  0.00     0.012 C 
HETATM   25  C28 UNL     1      -8.997  18.280   6.538  1.00  0.00    -0.011 C 
HETATM   26  C32 UNL     1     -10.379  18.418   5.844  1.00  0.00     0.005 C 
HETATM   27  C33 UNL     1     -10.988  17.229   5.095  1.00  0.00     0.010 C 
HETATM   28  C34 UNL     1     -10.168  16.409   4.068  1.00  0.00     0.050 C 
HETATM   29  C35 UNL     1     -10.988  16.182   2.791  1.00  0.00     0.125 C 
HETATM   30  C36 UNL     1     -10.356  15.079   1.932  1.00  0.00     0.033 C 
HETATM   31  C37 UNL     1      -8.829  14.965   2.096  1.00  0.00     0.023 C 
HETATM   32  C38 UNL     1      -8.137  16.326   2.368  1.00  0.00     0.051 C 
HETATM   33  C40 UNL     1      -8.747  16.942   3.712  1.00  0.00     0.082 C 
ENDROOT
BRANCH   1  34
HETATM   34  C5  UNL     1       0.428  15.578   6.438  1.00  0.00     0.306 C 
BRANCH  34  35
HETATM   35  N1  UNL     1       1.049  16.876   6.680  1.00  0.00     0.087 N 
HETATM   36  H10 UNL     1       1.950  16.739   7.134  1.00  0.00     0.316 HD
BRANCH  35  37
HETATM   37  C4  UNL     1       0.242  17.790   7.501  1.00  0.00     0.272 C 
BRANCH  37  38
HETATM   38  C3  UNL     1       0.010  17.296   8.935  1.00  0.00     0.056 C 
BRANCH  38  39
HETATM   39  C2  UNL     1      -1.308  17.821   9.502  1.00  0.00     0.168 C 
BRANCH  39  40
HETATM   40  O1  UNL     1      -2.438  17.128   8.969  1.00  0.00    -0.396 OA
HETATM   41  C1  UNL     1      -3.432  18.005   8.448  1.00  0.00     0.201 C 
ENDBRANCH  39  40
ENDBRANCH  38  39
ENDBRANCH  37  38
ENDBRANCH  35  37
ENDBRANCH  34  35
ENDBRANCH   1  34
BRANCH   5  42
HETATM   42  O2  UNL     1      -4.013  18.551   2.393  1.00  0.00    -0.386 OA
HETATM   43  H17 UNL     1      -4.891  18.971   2.266  1.00  0.00     0.210 HD
ENDBRANCH   5  42
BRANCH  21  44
HETATM   44  O5  UNL     1      -6.339  18.511   2.762  1.00  0.00    -0.386 OA
HETATM   45  H33 UNL     1      -7.186  18.745   3.204  1.00  0.00     0.210 HD
ENDBRANCH  21  44
BRANCH  32  46
HETATM   46  C39 UNL     1      -8.379  17.221   1.128  1.00  0.00     0.244 C 
HETATM   47  O7  UNL     1      -8.805  16.802   0.051  1.00  0.00    -0.306 OA
ENDBRANCH  32  46
BRANCH  33  48
HETATM   48  O8  UNL     1      -8.784  18.364   3.552  1.00  0.00    -0.388 OA
HETATM   49  H59 UNL     1      -9.637  18.565   3.097  1.00  0.00     0.210 HD
ENDBRANCH  33  48
BRANCH  25  50
HETATM   50  C29 UNL     1      -9.109  18.691   8.050  1.00  0.00    -0.019 C 
HETATM   51  C30 UNL     1     -10.291  18.032   8.778  1.00  0.00     0.010 C 
HETATM   52  C31 UNL     1      -7.826  18.322   8.817  1.00  0.00     0.010 C 
ENDBRANCH  25  50
BRANCH  29  53
HETATM   53  O6  UNL     1     -11.039  17.423   2.080  1.00  0.00    -0.395 OA
HETATM   54  H53 UNL     1     -11.522  17.261   1.245  1.00  0.00     0.210 HD
ENDBRANCH  29  53
TORSDOF 12
ENDMDL
