MODEL 1
REMARK minimizedAffinity -8.71605587
REMARK CNNscore 0.404247075
REMARK CNNaffinity 7.27256584
REMARK  11 active torsions:
REMARK  status: ('A' for Active; 'I' for Inactive)
REMARK    1  A    between atoms: C2_2  and  O1_4 
REMARK    2  A    between atoms: C2_2  and  C4_5 
REMARK    3  A    between atoms: C5_6  and  C6_7 
REMARK    4  A    between atoms: C6_7  and  C7_8 
REMARK    5  A    between atoms: C7_8  and  C8_9 
REMARK    6  A    between atoms: C7_8  and  C14_21 
REMARK    7  A    between atoms: C8_9  and  O3_11 
REMARK    8  A    between atoms: O3_11  and  C9_12 
REMARK    9  A    between atoms: C11_15  and  O5_16 
REMARK   10  A    between atoms: C12_17  and  O6_18 
REMARK   11  A    between atoms: C13_19  and  O7_20 
ROOT
HETATM    1  C7  UNL     1       1.559   8.318  13.927  1.00  0.00     0.094 C 
ENDROOT
BRANCH   1   2
HETATM    2  C6  UNL     1       1.713   9.355  12.796  1.00  0.00     0.042 C 
BRANCH   2   3
HETATM    3  C5  UNL     1       1.252   8.824  11.457  1.00  0.00    -0.027 C 
HETATM    4  C4  UNL     1       2.004   8.028  10.676  1.00  0.00     0.006 C 
BRANCH   4   5
HETATM    5  C2  UNL     1       1.630   7.419   9.343  1.00  0.00     0.068 C 
HETATM    6  C1  UNL     1       0.219   7.868   8.954  1.00  0.00     0.050 C 
HETATM    7  C3  UNL     1       2.606   7.711   8.201  1.00  0.00     0.050 C 
BRANCH   5   8
HETATM    8  O1  UNL     1       1.596   6.007   9.543  1.00  0.00    -0.387 OA
HETATM    9  H7  UNL     1       2.489   5.750   9.827  1.00  0.00     0.211 HD
ENDBRANCH   5   8
ENDBRANCH   4   5
ENDBRANCH   2   3
ENDBRANCH   1   2
BRANCH   1  10
HETATM   10  C8  UNL     1       2.889   8.210  14.664  1.00  0.00     0.266 C 
HETATM   11  O2  UNL     1       3.132   8.805  15.708  1.00  0.00    -0.265 OA
BRANCH  10  12
HETATM   12  O3  UNL     1       3.750   7.366  14.034  1.00  0.00    -0.287 OA
BRANCH  12  13
HETATM   13  C9  UNL     1       4.762   8.027  13.266  1.00  0.00     0.300 C 
HETATM   14  O4  UNL     1       4.628   7.674  11.872  1.00  0.00    -0.355 OA
HETATM   15  C10 UNL     1       5.379   6.509  11.524  1.00  0.00     0.205 C 
HETATM   16  C11 UNL     1       6.878   6.830  11.594  1.00  0.00     0.173 C 
HETATM   17  C12 UNL     1       7.191   7.867  12.694  1.00  0.00     0.182 C 
HETATM   18  C13 UNL     1       6.186   7.745  13.833  1.00  0.00     0.205 C 
BRANCH  16  19
HETATM   19  O5  UNL     1       7.341   7.379  10.346  1.00  0.00    -0.391 OA
HETATM   20  H17 UNL     1       6.684   8.042  10.061  1.00  0.00     0.210 HD
ENDBRANCH  16  19
BRANCH  17  21
HETATM   21  O6  UNL     1       8.518   7.644  13.199  1.00  0.00    -0.390 OA
HETATM   22  H19 UNL     1       9.104   7.642  12.418  1.00  0.00     0.210 HD
ENDBRANCH  17  21
BRANCH  18  23
HETATM   23  O7  UNL     1       6.302   6.412  14.381  1.00  0.00    -0.388 OA
HETATM   24  H21 UNL     1       7.227   6.350  14.687  1.00  0.00     0.210 HD
ENDBRANCH  18  23
ENDBRANCH  12  13
ENDBRANCH  10  12
ENDBRANCH   1  10
BRANCH   1  25
HETATM   25  C14 UNL     1       0.403   8.536  14.943  1.00  0.00     0.009 C 
HETATM   26  C15 UNL     1       0.185   9.978  15.474  1.00  0.00     0.007 C 
HETATM   27  C16 UNL     1      -1.330  10.136  15.743  1.00  0.00     0.015 C 
HETATM   28  C17 UNL     1      -1.898   8.704  15.681  1.00  0.00    -0.013 C 
HETATM   29  C18 UNL     1      -1.666   8.066  17.090  1.00  0.00     0.021 C 
HETATM   30  C19 UNL     1      -3.381   8.483  15.393  1.00  0.00    -0.068 C 
HETATM   31  C23 UNL     1      -1.032   8.104  14.515  1.00  0.00    -0.028 C 
HETATM   32  C20 UNL     1      -3.796   7.342  14.782  1.00  0.00    -0.068 C 
HETATM   33  C35 UNL     1      -4.321   9.550  15.893  1.00  0.00     0.036 C 
HETATM   34  C21 UNL     1      -2.791   6.293  14.285  1.00  0.00     0.036 C 
HETATM   35  C25 UNL     1      -5.300   7.059  14.512  1.00  0.00    -0.015 C 
HETATM   36  C22 UNL     1      -1.287   6.596  14.461  1.00  0.00     0.015 C 
HETATM   37  C26 UNL     1      -5.586   7.459  13.047  1.00  0.00     0.020 C 
HETATM   38  C27 UNL     1      -5.630   5.567  14.740  1.00  0.00     0.021 C 
HETATM   39  C33 UNL     1      -6.180   7.847  15.538  1.00  0.00     0.013 C 
HETATM   40  C28 UNL     1      -7.089   5.191  14.560  1.00  0.00     0.080 C 
HETATM   41  C29 UNL     1      -8.082   6.325  14.654  1.00  0.00     0.135 C 
HETATM   42  O8  UNL     1      -9.198   6.175  14.148  1.00  0.00    -0.297 OA
HETATM   43  C30 UNL     1      -7.726   7.592  15.442  1.00  0.00     0.018 C 
HETATM   44  C31 UNL     1      -8.294   7.375  16.862  1.00  0.00     0.023 C 
HETATM   45  C32 UNL     1      -8.498   8.770  14.804  1.00  0.00     0.023 C 
HETATM   46  C34 UNL     1      -5.794   9.335  15.545  1.00  0.00     0.011 C 
HETATM   47  C24 UNL     1      -1.376   8.701  13.114  1.00  0.00     0.016 C 
ENDBRANCH   1  25
TORSDOF 11
ENDMDL
