MODEL 1
REMARK minimizedAffinity -8.93688488
REMARK  4 active torsions:
REMARK  status: ('A' for Active; 'I' for Inactive)
REMARK    1  A    between atoms: C4_4  and  C5_5 
REMARK    2  A    between atoms: C5_5  and  C6_6 
REMARK    3  A    between atoms: C6_6  and  C7_7 
REMARK    4  A    between atoms: C7_7  and  C9_9 
ROOT
HETATM    1  C9  UNL     1       0.544   7.213  10.465  1.00  0.00    -0.002 C 
HETATM    2  C10 UNL     1       1.049   5.769  10.713  1.00  0.00     0.010 C 
HETATM    3  C11 UNL     1       0.482   5.324  12.087  1.00  0.00    -0.013 C 
HETATM    4  C12 UNL     1      -0.242   3.988  11.929  1.00  0.00     0.010 C 
HETATM    5  C13 UNL     1      -0.408   6.502  12.522  1.00  0.00     0.003 C 
HETATM    6  C14 UNL     1      -0.762   6.729  14.011  1.00  0.00    -0.000 C 
HETATM    7  C15 UNL     1      -1.307   5.523  14.764  1.00  0.00     0.006 C 
HETATM    8  C16 UNL     1      -2.730   5.106  14.410  1.00  0.00     0.006 C 
HETATM    9  C17 UNL     1      -3.641   6.158  13.742  1.00  0.00     0.003 C 
HETATM   10  C18 UNL     1      -5.168   5.925  14.033  1.00  0.00    -0.043 C 
HETATM   11  C19 UNL     1      -5.516   6.072  15.530  1.00  0.00     0.015 C 
HETATM   12  C20 UNL     1      -5.592   4.509  13.585  1.00  0.00     0.015 C 
HETATM   13  C21 UNL     1      -6.005   6.939  13.210  1.00  0.00     0.009 C 
HETATM   14  C22 UNL     1      -5.589   8.384  13.452  1.00  0.00     0.002 C 
HETATM   15  C23 UNL     1      -4.110   8.590  13.157  1.00  0.00     0.011 C 
HETATM   16  C24 UNL     1      -3.235   7.627  13.946  1.00  0.00    -0.027 A 
HETATM   17  C25 UNL     1      -2.658   8.115  15.259  1.00  0.00     0.021 A 
HETATM   18  C26 UNL     1      -1.731   7.925  14.072  1.00  0.00    -0.028 A 
HETATM   19  C27 UNL     1      -1.126   9.184  13.459  1.00  0.00     0.011 C 
HETATM   20  C28 UNL     1      -0.664   8.949  12.012  1.00  0.00     0.011 C 
HETATM   21  C29 UNL     1       0.310   7.756  11.902  1.00  0.00    -0.036 C 
HETATM   22  C30 UNL     1       1.640   8.117  12.605  1.00  0.00     0.016 C 
ENDROOT
BRANCH   1  23
HETATM   23  C7  UNL     1       1.365   7.967   9.378  1.00  0.00    -0.014 C 
HETATM   24  C8  UNL     1       0.738   8.059   7.983  1.00  0.00     0.010 C 
BRANCH  23  25
HETATM   25  C6  UNL     1       2.817   7.439   9.293  1.00  0.00     0.008 C 
BRANCH  25  26
HETATM   26  C5  UNL     1       2.965   5.909   9.353  1.00  0.00     0.028 C 
BRANCH  26  27
HETATM   27  C4  UNL     1       3.077   5.279   7.992  1.00  0.00    -0.025 C 
HETATM   28  C2  UNL     1       3.758   4.171   7.641  1.00  0.00    -0.091 C 
HETATM   29  C1  UNL     1       4.598   3.333   8.562  1.00  0.00     0.042 C 
HETATM   30  C3  UNL     1       3.725   3.674   6.219  1.00  0.00     0.042 C 
ENDBRANCH  26  27
ENDBRANCH  25  26
ENDBRANCH  23  25
ENDBRANCH   1  23
TORSDOF 4
ENDMDL
