MODEL 1
REMARK minimizedAffinity -9.52382183
REMARK  5 active torsions:
REMARK  status: ('A' for Active; 'I' for Inactive)
REMARK    1  A    between atoms: C4_4  and  C5_5 
REMARK    2  A    between atoms: C5_5  and  C6_6 
REMARK    3  A    between atoms: C6_6  and  C7_7 
REMARK    4  A    between atoms: C7_7  and  C9_9 
REMARK    5  A    between atoms: C30_31  and  O2_32 
ROOT
HETATM    1  C9  UNL     1      -0.569  50.120 -21.217  1.00  0.00    -0.002 C 
HETATM    2  C10 UNL     1      -0.867  49.596 -19.791  1.00  0.00     0.007 C 
HETATM    3  C11 UNL     1      -2.197  48.811 -19.873  1.00  0.00     0.015 C 
HETATM    4  C12 UNL     1      -2.464  48.613 -21.379  1.00  0.00    -0.010 C 
HETATM    5  C13 UNL     1      -1.644  47.360 -21.828  1.00  0.00     0.021 C 
HETATM    6  C14 UNL     1      -3.890  48.372 -21.875  1.00  0.00    -0.039 C 
HETATM    7  C15 UNL     1      -4.215  48.713 -23.154  1.00  0.00    -0.066 C 
HETATM    8  C16 UNL     1      -3.206  49.416 -24.078  1.00  0.00     0.036 C 
HETATM    9  C17 UNL     1      -1.861  49.871 -23.469  1.00  0.00     0.015 C 
HETATM   10  C18 UNL     1      -1.941  49.986 -21.943  1.00  0.00    -0.029 C 
HETATM   11  C19 UNL     1      -2.865  51.190 -21.596  1.00  0.00     0.016 C 
HETATM   12  C20 UNL     1      -5.635  48.463 -23.731  1.00  0.00    -0.015 C 
HETATM   13  C21 UNL     1      -6.372  49.818 -23.626  1.00  0.00     0.020 C 
HETATM   14  C22 UNL     1      -5.576  48.017 -25.213  1.00  0.00     0.021 C 
HETATM   15  C23 UNL     1      -6.938  47.663 -25.790  1.00  0.00     0.080 C 
HETATM   16  C24 UNL     1      -7.619  46.583 -24.987  1.00  0.00     0.135 C 
HETATM   17  O1  UNL     1      -8.197  45.663 -25.572  1.00  0.00    -0.297 OA
HETATM   18  C25 UNL     1      -7.683  46.748 -23.460  1.00  0.00     0.018 C 
HETATM   19  C26 UNL     1      -8.909  47.611 -23.126  1.00  0.00     0.023 C 
HETATM   20  C27 UNL     1      -7.936  45.343 -22.852  1.00  0.00     0.023 C 
HETATM   21  C28 UNL     1      -6.312  47.290 -22.928  1.00  0.00     0.016 C 
HETATM   22  C29 UNL     1      -6.305  47.625 -21.425  1.00  0.00     0.043 C 
HETATM   23  C30 UNL     1      -4.868  47.744 -20.906  1.00  0.00     0.148 C 
ENDROOT
BRANCH   1  24
HETATM   24  C7  UNL     1       0.206  51.469 -21.329  1.00  0.00    -0.014 C 
HETATM   25  C8  UNL     1       0.072  52.235 -20.001  1.00  0.00     0.010 C 
BRANCH  24  26
HETATM   26  C6  UNL     1      -0.215  52.385 -22.504  1.00  0.00     0.008 C 
BRANCH  26  27
HETATM   27  C5  UNL     1       0.785  52.418 -23.671  1.00  0.00     0.028 C 
BRANCH  27  28
HETATM   28  C4  UNL     1       0.161  52.100 -25.004  1.00  0.00    -0.025 C 
HETATM   29  C2  UNL     1       0.787  51.643 -26.105  1.00  0.00    -0.091 C 
HETATM   30  C1  UNL     1       0.028  51.416 -27.385  1.00  0.00     0.042 C 
HETATM   31  C3  UNL     1       2.250  51.306 -26.183  1.00  0.00     0.042 C 
ENDBRANCH  27  28
ENDBRANCH  26  27
ENDBRANCH  24  26
ENDBRANCH   1  24
BRANCH  23  32
HETATM   32  O2  UNL     1      -4.395  46.435 -20.596  1.00  0.00    -0.391 OA
HETATM   33  H48 UNL     1      -4.947  46.090 -19.876  1.00  0.00     0.210 HD
ENDBRANCH  23  32
TORSDOF 5
ENDMDL
