MODEL 1
REMARK minimizedAffinity -8.57769108
REMARK CNNscore 0.167715609
REMARK CNNaffinity 6.14540243
REMARK  13 active torsions:
REMARK  status: ('A' for Active; 'I' for Inactive)
REMARK    1  A    between atoms: C2_2  and  C3_3 
REMARK    2  A    between atoms: C2_2  and  C11_12 
REMARK    3  A    between atoms: C3_3  and  C4_4 
REMARK    4  A    between atoms: C4_4  and  C5_5 
REMARK    5  A    between atoms: C5_5  and  O1_7 
REMARK    6  A    between atoms: C5_5  and  C7_8 
REMARK    7  A    between atoms: C28_32  and  O5_33 
REMARK    8  A    between atoms: O5_33  and  C29_34 
REMARK    9  A    between atoms: C30_36  and  C31_37 
REMARK   10  A    between atoms: C31_37  and  O7_38 
REMARK   11  A    between atoms: C32_39  and  O8_40 
REMARK   12  A    between atoms: C33_41  and  O9_42 
REMARK   13  A    between atoms: C34_43  and  O10_44 
ROOT
HETATM    1  C11 UNL     1      -7.068  47.940 -23.094  1.00  0.00    -0.001 C 
HETATM    2  C12 UNL     1      -6.115  48.053 -24.318  1.00  0.00     0.007 C 
HETATM    3  C13 UNL     1      -6.882  47.572 -25.561  1.00  0.00     0.024 C 
HETATM    4  C14 UNL     1      -8.268  47.245 -25.050  1.00  0.00     0.092 C 
HETATM    5  C15 UNL     1      -9.214  48.467 -25.156  1.00  0.00     0.272 C 
HETATM    6  O2  UNL     1      -8.914  49.648 -25.131  1.00  0.00    -0.264 OA
HETATM    7  O3  UNL     1     -10.509  48.004 -25.280  1.00  0.00    -0.305 OA
HETATM    8  C16 UNL     1     -10.497  46.551 -25.244  1.00  0.00     0.113 C 
HETATM    9  C17 UNL     1     -10.552  46.146 -23.735  1.00  0.00     0.043 C 
HETATM   10  C18 UNL     1      -9.466  46.838 -22.863  1.00  0.00     0.014 C 
HETATM   11  C19 UNL     1      -8.077  46.837 -23.553  1.00  0.00    -0.020 C 
HETATM   12  C20 UNL     1      -7.449  45.429 -23.387  1.00  0.00     0.017 C 
HETATM   13  C21 UNL     1      -9.124  46.278 -25.768  1.00  0.00     0.137 A 
HETATM   14  O4  UNL     1      -8.689  44.972 -26.085  1.00  0.00    -0.364 OA
HETATM   15  C22 UNL     1      -8.888  45.872 -27.200  1.00  0.00     0.162 A 
HETATM   16  C23 UNL     1     -10.043  45.527 -28.080  1.00  0.00     0.041 C 
HETATM   17  C24 UNL     1     -11.337  46.259 -27.650  1.00  0.00     0.009 C 
HETATM   18  C25 UNL     1     -12.518  46.080 -28.691  1.00  0.00    -0.017 C 
HETATM   19  C26 UNL     1     -12.541  44.690 -29.370  1.00  0.00     0.018 C 
HETATM   20  C27 UNL     1     -12.286  47.105 -29.840  1.00  0.00     0.018 C 
HETATM   21  C28 UNL     1     -13.911  46.404 -28.060  1.00  0.00     0.133 C 
HETATM   22  C35 UNL     1     -13.759  47.364 -26.883  1.00  0.00     0.034 C 
HETATM   23  C36 UNL     1     -13.008  46.713 -25.724  1.00  0.00     0.015 C 
HETATM   24  C37 UNL     1     -11.679  45.988 -26.129  1.00  0.00    -0.004 C 
HETATM   25  C38 UNL     1     -11.868  44.473 -25.857  1.00  0.00     0.019 C 
ENDROOT
BRANCH  21  26
HETATM   26  O5  UNL     1     -14.530  45.197 -27.603  1.00  0.00    -0.352 OA
BRANCH  26  27
HETATM   27  C29 UNL     1     -15.954  45.171 -27.753  1.00  0.00     0.292 C 
HETATM   28  O6  UNL     1     -16.590  45.383 -26.490  1.00  0.00    -0.348 OA
HETATM   29  C30 UNL     1     -17.957  44.977 -26.482  1.00  0.00     0.179 C 
HETATM   30  C32 UNL     1     -18.092  43.442 -26.635  1.00  0.00     0.180 C 
HETATM   31  C33 UNL     1     -16.910  42.834 -27.412  1.00  0.00     0.183 C 
HETATM   32  C34 UNL     1     -16.343  43.825 -28.430  1.00  0.00     0.204 C 
BRANCH  29  33
HETATM   33  C31 UNL     1     -18.604  45.514 -25.202  1.00  0.00     0.198 C 
BRANCH  33  34
HETATM   34  O7  UNL     1     -19.499  46.584 -25.496  1.00  0.00    -0.398 OA
HETATM   35  H49 UNL     1     -19.133  47.383 -25.072  1.00  0.00     0.209 HD
ENDBRANCH  33  34
ENDBRANCH  29  33
BRANCH  30  36
HETATM   36  O8  UNL     1     -18.189  42.746 -25.380  1.00  0.00    -0.390 OA
HETATM   37  H51 UNL     1     -19.002  43.088 -24.950  1.00  0.00     0.210 HD
ENDBRANCH  30  36
BRANCH  31  38
HETATM   38  O9  UNL     1     -15.890  42.380 -26.517  1.00  0.00    -0.390 OA
HETATM   39  H53 UNL     1     -16.360  42.225 -25.668  1.00  0.00     0.210 HD
ENDBRANCH  31  38
BRANCH  32  40
HETATM   40  O10 UNL     1     -17.350  44.064 -29.438  1.00  0.00    -0.388 OA
HETATM   41  H55 UNL     1     -17.331  43.293 -30.034  1.00  0.00     0.210 HD
ENDBRANCH  32  40
ENDBRANCH  26  27
ENDBRANCH  21  26
BRANCH   1  42
HETATM   42  C2  UNL     1      -6.290  47.767 -21.754  1.00  0.00    -0.014 C 
HETATM   43  C1  UNL     1      -6.767  48.760 -20.687  1.00  0.00     0.010 C 
BRANCH  42  44
HETATM   44  C3  UNL     1      -4.758  47.954 -21.951  1.00  0.00     0.007 C 
BRANCH  44  45
HETATM   45  C4  UNL     1      -4.201  49.314 -21.513  1.00  0.00     0.038 C 
BRANCH  45  46
HETATM   46  C5  UNL     1      -2.999  49.965 -22.267  1.00  0.00     0.061 C 
HETATM   47  C6  UNL     1      -2.688  49.219 -23.574  1.00  0.00     0.046 C 
BRANCH  46  48
HETATM   48  O1  UNL     1      -3.516  51.259 -22.677  1.00  0.00    -0.389 OA
HETATM   49  H12 UNL     1      -4.275  51.114 -23.267  1.00  0.00     0.210 HD
ENDBRANCH  46  48
BRANCH  46  50
HETATM   50  C7  UNL     1      -1.693  50.273 -21.411  1.00  0.00    -0.021 C 
HETATM   51  C8  UNL     1      -2.039  51.067 -20.131  1.00  0.00     0.017 C 
HETATM   52  C9  UNL     1      -0.895  49.021 -20.993  1.00  0.00     0.017 C 
HETATM   53  C10 UNL     1      -0.707  51.159 -22.222  1.00  0.00     0.017 C 
ENDBRANCH  46  50
ENDBRANCH  45  46
ENDBRANCH  44  45
ENDBRANCH  42  44
ENDBRANCH   1  42
TORSDOF 13
ENDMDL
