MODEL 1
REMARK minimizedAffinity -8.97447968
REMARK  6 active torsions:
REMARK  status: ('A' for Active; 'I' for Inactive)
REMARK    1  A    between atoms: C2_2  and  C3_3 
REMARK    2  A    between atoms: C4_5  and  C5_6 
REMARK    3  A    between atoms: C5_6  and  C6_7 
REMARK    4  A    between atoms: C6_7  and  C7_8 
REMARK    5  A    between atoms: C7_8  and  C9_10 
REMARK    6  A    between atoms: C30_32  and  O3_33 
ROOT
HETATM    1  C9  UNL     1      -3.786   8.402  14.358  1.00  0.00    -0.002 C 
HETATM    2  C10 UNL     1      -3.483   7.673  15.696  1.00  0.00     0.007 C 
HETATM    3  C11 UNL     1      -1.985   7.316  15.700  1.00  0.00     0.015 C 
HETATM    4  C12 UNL     1      -1.371   8.119  14.538  1.00  0.00    -0.010 C 
HETATM    5  C13 UNL     1      -1.083   9.558  15.071  1.00  0.00     0.021 C 
HETATM    6  C14 UNL     1      -0.057   7.664  13.900  1.00  0.00    -0.039 C 
HETATM    7  C15 UNL     1       0.185   7.925  12.585  1.00  0.00    -0.066 C 
HETATM    8  C16 UNL     1      -0.847   8.632  11.703  1.00  0.00     0.036 C 
HETATM    9  C17 UNL     1      -2.212   8.972  12.331  1.00  0.00     0.015 C 
HETATM   10  C18 UNL     1      -2.550   8.024  13.487  1.00  0.00    -0.029 C 
HETATM   11  C19 UNL     1      -2.751   6.585  12.911  1.00  0.00     0.016 C 
HETATM   12  C20 UNL     1       1.450   7.369  11.892  1.00  0.00    -0.015 C 
HETATM   13  C21 UNL     1       1.112   5.892  11.519  1.00  0.00     0.020 C 
HETATM   14  C22 UNL     1       1.771   8.098  10.554  1.00  0.00     0.021 C 
HETATM   15  C23 UNL     1       3.185   7.841  10.066  1.00  0.00     0.080 C 
HETATM   16  C24 UNL     1       4.178   8.422  11.037  1.00  0.00     0.135 C 
HETATM   17  O2  UNL     1       5.267   8.832  10.628  1.00  0.00    -0.297 OA
HETATM   18  C25 UNL     1       3.792   8.470  12.524  1.00  0.00     0.018 C 
HETATM   19  C26 UNL     1       5.085   8.195  13.330  1.00  0.00     0.023 C 
HETATM   20  C27 UNL     1       3.322   9.902  12.845  1.00  0.00     0.023 C 
HETATM   21  C28 UNL     1       2.718   7.361  12.836  1.00  0.00     0.016 C 
HETATM   22  C29 UNL     1       2.382   7.317  14.343  1.00  0.00     0.043 C 
HETATM   23  C30 UNL     1       0.962   6.909  14.718  1.00  0.00     0.148 C 
ENDROOT
BRANCH   1  24
HETATM   24  C7  UNL     1      -5.222   8.096  13.842  1.00  0.00    -0.014 C 
HETATM   25  C8  UNL     1      -6.315   8.595  14.793  1.00  0.00     0.010 C 
BRANCH  24  26
HETATM   26  C6  UNL     1      -5.445   6.591  13.534  1.00  0.00     0.008 C 
BRANCH  26  27
HETATM   27  C5  UNL     1      -6.194   5.807  14.618  1.00  0.00     0.028 C 
BRANCH  27  28
HETATM   28  C4  UNL     1      -6.916   4.629  14.025  1.00  0.00    -0.017 C 
HETATM   29  C2  UNL     1      -6.430   3.735  13.143  1.00  0.00    -0.028 C 
HETATM   30  C1  UNL     1      -5.044   3.683  12.585  1.00  0.00     0.051 C 
BRANCH  29  31
HETATM   31  C3  UNL     1      -7.346   2.651  12.670  1.00  0.00     0.265 C 
HETATM   32  O1  UNL     1      -8.566   2.695  12.761  1.00  0.00    -0.302 OA
ENDBRANCH  29  31
ENDBRANCH  27  28
ENDBRANCH  26  27
ENDBRANCH  24  26
ENDBRANCH   1  24
BRANCH  23  33
HETATM   33  O3  UNL     1       0.819   7.187  16.106  1.00  0.00    -0.391 OA
HETATM   34  H46 UNL     1       1.446   6.619  16.582  1.00  0.00     0.210 HD
ENDBRANCH  23  33
TORSDOF 6
ENDMDL
