MODEL 1
REMARK minimizedAffinity -7.14590168
REMARK CNNscore 0.874797165
REMARK CNNaffinity 7.44924688
REMARK  9 active torsions:
REMARK  status: ('A' for Active; 'I' for Inactive)
REMARK    1  A    between atoms: C2_2  and  C3_3 
REMARK    2  A    between atoms: C2_2  and  C9_11 
REMARK    3  A    between atoms: C3_3  and  C4_4 
REMARK    4  A    between atoms: C4_4  and  C5_5 
REMARK    5  A    between atoms: C5_5  and  O1_6 
REMARK    6  A    between atoms: C5_5  and  C6_7 
REMARK    7  A    between atoms: C6_7  and  O2_10 
REMARK    8  A    between atoms: C17_19  and  C18_20 
REMARK    9  A    between atoms: C18_20  and  O3_23 
ROOT
HETATM    1  C9  UNL     1      -2.301  51.727 -10.028  1.00  0.00    -0.002 C 
HETATM    2  C10 UNL     1      -2.246  51.276  -8.533  1.00  0.00     0.006 C 
HETATM    3  C11 UNL     1      -0.930  51.830  -7.939  1.00  0.00     0.011 C 
HETATM    4  C12 UNL     1      -0.105  52.250  -9.170  1.00  0.00    -0.032 C 
HETATM    5  C13 UNL     1       0.510  50.922  -9.731  1.00  0.00     0.016 C 
HETATM    6  C14 UNL     1       0.992  53.323  -8.906  1.00  0.00     0.003 C 
HETATM    7  C15 UNL     1       2.013  52.948  -7.822  1.00  0.00     0.009 C 
HETATM    8  C16 UNL     1       3.262  53.828  -7.780  1.00  0.00     0.042 C 
HETATM    9  C17 UNL     1       3.186  55.238  -8.428  1.00  0.00     0.095 C 
HETATM   10  O4  UNL     1       4.572  55.641  -8.673  1.00  0.00    -0.377 OA
HETATM   11  C21 UNL     1       5.153  55.145  -9.867  1.00  0.00     0.169 C 
HETATM   12  C22 UNL     1       4.507  55.786 -11.076  1.00  0.00     0.027 C 
HETATM   13  C23 UNL     1       3.027  56.081 -10.879  1.00  0.00     0.010 C 
HETATM   14  C24 UNL     1       2.328  55.291  -9.751  1.00  0.00     0.032 C 
HETATM   15  C25 UNL     1       1.648  53.921 -10.202  1.00  0.00    -0.033 C 
HETATM   16  C26 UNL     1       2.666  52.966 -10.864  1.00  0.00     0.016 C 
HETATM   17  C27 UNL     1       0.554  54.232 -11.294  1.00  0.00     0.011 C 
HETATM   18  C28 UNL     1      -0.609  53.224 -11.441  1.00  0.00     0.011 C 
HETATM   19  C29 UNL     1      -1.243  52.873 -10.083  1.00  0.00    -0.032 C 
HETATM   20  C30 UNL     1      -1.881  54.179  -9.522  1.00  0.00     0.016 C 
ENDROOT
BRANCH   1  21
HETATM   21  C2  UNL     1      -3.756  51.853 -10.579  1.00  0.00    -0.014 C 
HETATM   22  C1  UNL     1      -3.948  52.676 -11.860  1.00  0.00     0.010 C 
BRANCH  21  23
HETATM   23  C3  UNL     1      -4.435  50.473 -10.708  1.00  0.00     0.007 C 
BRANCH  23  24
HETATM   24  C4  UNL     1      -5.854  50.330 -10.124  1.00  0.00     0.035 C 
BRANCH  24  25
HETATM   25  C5  UNL     1      -6.264  48.885  -9.777  1.00  0.00     0.151 C 
BRANCH  25  26
HETATM   26  O1  UNL     1      -5.700  48.542  -8.511  1.00  0.00    -0.393 OA
HETATM   27  H10 UNL     1      -5.755  47.577  -8.406  1.00  0.00     0.210 HD
ENDBRANCH  25  26
BRANCH  25  28
HETATM   28  C6  UNL     1      -7.813  48.681  -9.765  1.00  0.00     0.076 C 
HETATM   29  C7  UNL     1      -8.445  49.327  -8.524  1.00  0.00     0.048 C 
HETATM   30  C8  UNL     1      -8.486  49.245 -11.020  1.00  0.00     0.048 C 
BRANCH  28  31
HETATM   31  O2  UNL     1      -8.116  47.279  -9.714  1.00  0.00    -0.388 OA
HETATM   32  H17 UNL     1      -7.766  46.922  -8.881  1.00  0.00     0.210 HD
ENDBRANCH  28  31
ENDBRANCH  25  28
ENDBRANCH  24  25
ENDBRANCH  23  24
ENDBRANCH  21  23
ENDBRANCH   1  21
BRANCH   9  33
HETATM   33  C18 UNL     1       2.725  56.331  -7.352  1.00  0.00     0.082 C 
HETATM   34  C19 UNL     1       3.388  57.704  -7.475  1.00  0.00     0.049 C 
HETATM   35  C20 UNL     1       2.867  55.848  -5.898  1.00  0.00     0.049 C 
BRANCH  33  36
HETATM   36  O3  UNL     1       1.308  56.555  -7.535  1.00  0.00    -0.388 OA
HETATM   37  H37 UNL     1       0.935  55.658  -7.658  1.00  0.00     0.210 HD
ENDBRANCH  33  36
ENDBRANCH   9  33
TORSDOF 9
ENDMDL
