MODEL 1
REMARK minimizedAffinity -8.16484451
REMARK CNNscore 0.69840169
REMARK CNNaffinity 6.85319757
REMARK  4 active torsions:
REMARK  status: ('A' for Active; 'I' for Inactive)
REMARK    1  A    between atoms: C4_4  and  C5_5 
REMARK    2  A    between atoms: C5_5  and  C6_7 
REMARK    3  A    between atoms: C6_7  and  C7_8 
REMARK    4  A    between atoms: C7_8  and  C9_10 
ROOT
HETATM    1  C9  UNL     1       0.169  12.429  17.972  1.00  0.00    -0.001 C 
HETATM    2  C10 UNL     1      -0.980  13.474  17.863  1.00  0.00     0.007 C 
HETATM    3  C11 UNL     1      -2.110  12.830  17.033  1.00  0.00     0.015 C 
HETATM    4  C12 UNL     1      -1.473  11.569  16.414  1.00  0.00    -0.013 C 
HETATM    5  C13 UNL     1      -0.716  12.049  15.132  1.00  0.00     0.021 C 
HETATM    6  C14 UNL     1      -2.401  10.445  15.960  1.00  0.00    -0.070 C 
HETATM    7  C15 UNL     1      -3.618  10.686  15.438  1.00  0.00    -0.022 C 
HETATM    8  C16 UNL     1      -4.521   9.632  14.867  1.00  0.00     0.034 C 
HETATM    9  C17 UNL     1      -4.066   8.185  15.161  1.00  0.00     0.013 C 
HETATM   10  C18 UNL     1      -4.933   7.053  14.486  1.00  0.00     0.018 C 
HETATM   11  C19 UNL     1      -5.968   7.592  13.474  1.00  0.00     0.023 C 
HETATM   12  C20 UNL     1      -5.718   6.291  15.579  1.00  0.00     0.023 C 
HETATM   13  C21 UNL     1      -4.078   5.998  13.768  1.00  0.00     0.135 C 
HETATM   14  O2  UNL     1      -4.463   5.439  12.738  1.00  0.00    -0.297 OA
HETATM   15  C22 UNL     1      -2.776   5.556  14.393  1.00  0.00     0.080 C 
HETATM   16  C23 UNL     1      -2.152   6.578  15.329  1.00  0.00     0.017 C 
HETATM   17  C24 UNL     1      -2.511   8.044  14.993  1.00  0.00    -0.031 C 
HETATM   18  C25 UNL     1      -2.040   8.392  13.560  1.00  0.00     0.016 C 
HETATM   19  C26 UNL     1      -1.847   9.016  16.050  1.00  0.00     0.024 C 
HETATM   20  C27 UNL     1      -0.299   8.983  16.080  1.00  0.00     0.010 C 
HETATM   21  C28 UNL     1       0.368   9.957  17.083  1.00  0.00     0.011 C 
HETATM   22  C29 UNL     1      -0.549  11.092  17.590  1.00  0.00    -0.029 C 
HETATM   23  C30 UNL     1      -1.337  10.589  18.843  1.00  0.00     0.016 C 
ENDROOT
BRANCH   1  24
HETATM   24  C7  UNL     1       0.938  12.530  19.319  1.00  0.00    -0.007 C 
HETATM   25  C8  UNL     1       0.492  13.716  20.181  1.00  0.00     0.011 C 
BRANCH  24  26
HETATM   26  C6  UNL     1       0.895  11.219  20.142  1.00  0.00     0.087 C 
BRANCH  26  27
HETATM   27  C5  UNL     1       2.193  10.429  20.231  1.00  0.00     0.149 C 
HETATM   28  O1  UNL     1       2.611   9.710  19.329  1.00  0.00    -0.293 OA
BRANCH  27  29
HETATM   29  C4  UNL     1       2.919  10.535  21.536  1.00  0.00     0.052 C 
HETATM   30  C2  UNL     1       2.808   9.676  22.567  1.00  0.00    -0.084 C 
HETATM   31  C1  UNL     1       3.550   9.927  23.853  1.00  0.00     0.043 C 
HETATM   32  C3  UNL     1       1.974   8.421  22.565  1.00  0.00     0.043 C 
ENDBRANCH  27  29
ENDBRANCH  26  27
ENDBRANCH  24  26
ENDBRANCH   1  24
TORSDOF 4
ENDMDL
