MODEL 1
REMARK minimizedAffinity -9.89245796
REMARK  7 active torsions:
REMARK  status: ('A' for Active; 'I' for Inactive)
REMARK    1  A    between atoms: C2_2  and  C3_3 
REMARK    2  A    between atoms: C2_2  and  C4_6 
REMARK    3  A    between atoms: C3_3  and  O2_5 
REMARK    4  A    between atoms: C4_6  and  C6_8 
REMARK    5  A    between atoms: C6_8  and  C7_10 
REMARK    6  A    between atoms: C7_10  and  C8_11 
REMARK    7  A    between atoms: C8_11  and  C10_13 
ROOT
HETATM    1  C10 UNL     1      -0.085  51.493 -22.380  1.00  0.00    -0.001 C 
HETATM    2  C11 UNL     1      -0.070  52.034 -20.920  1.00  0.00     0.007 C 
HETATM    3  C12 UNL     1      -1.329  51.495 -20.215  1.00  0.00     0.015 C 
HETATM    4  C13 UNL     1      -1.862  50.393 -21.145  1.00  0.00    -0.013 C 
HETATM    5  C14 UNL     1      -1.058  49.093 -20.820  1.00  0.00     0.021 C 
HETATM    6  C15 UNL     1      -3.327  49.987 -21.045  1.00  0.00    -0.068 C 
HETATM    7  C16 UNL     1      -3.961  49.471 -22.134  1.00  0.00    -0.068 C 
HETATM    8  C17 UNL     1      -3.260  49.368 -23.488  1.00  0.00     0.036 C 
HETATM    9  C18 UNL     1      -1.834  49.952 -23.610  1.00  0.00     0.015 C 
HETATM   10  C19 UNL     1      -1.566  51.032 -22.554  1.00  0.00    -0.029 C 
HETATM   11  C20 UNL     1      -2.461  52.270 -22.873  1.00  0.00     0.016 C 
HETATM   12  C21 UNL     1      -5.454  49.062 -22.051  1.00  0.00    -0.015 C 
HETATM   13  C22 UNL     1      -6.230  50.369 -22.369  1.00  0.00     0.020 C 
HETATM   14  C23 UNL     1      -5.924  47.995 -23.087  1.00  0.00     0.021 C 
HETATM   15  C24 UNL     1      -5.946  46.579 -22.533  1.00  0.00     0.080 C 
HETATM   16  C25 UNL     1      -6.963  46.507 -21.414  1.00  0.00     0.135 C 
HETATM   17  O4  UNL     1      -7.747  45.557 -21.342  1.00  0.00    -0.297 OA
HETATM   18  C26 UNL     1      -6.968  47.649 -20.382  1.00  0.00     0.018 C 
HETATM   19  C27 UNL     1      -8.280  48.428 -20.535  1.00  0.00     0.023 C 
HETATM   20  C28 UNL     1      -6.956  46.993 -18.983  1.00  0.00     0.023 C 
HETATM   21  C29 UNL     1      -5.677  48.501 -20.593  1.00  0.00     0.013 C 
HETATM   22  C30 UNL     1      -5.420  49.606 -19.561  1.00  0.00     0.011 C 
HETATM   23  C31 UNL     1      -3.985  50.137 -19.686  1.00  0.00     0.036 C 
ENDROOT
BRANCH   1  24
HETATM   24  C8  UNL     1       0.531  52.502 -23.391  1.00  0.00    -0.007 C 
HETATM   25  C9  UNL     1       1.007  53.803 -22.735  1.00  0.00     0.011 C 
BRANCH  24  26
HETATM   26  C7  UNL     1      -0.394  52.823 -24.590  1.00  0.00     0.083 C 
BRANCH  26  27
HETATM   27  C6  UNL     1       0.160  53.763 -25.659  1.00  0.00     0.135 C 
HETATM   28  O3  UNL     1       0.258  54.978 -25.483  1.00  0.00    -0.297 OA
BRANCH  27  29
HETATM   29  C4  UNL     1       0.545  53.123 -26.998  1.00  0.00     0.090 C 
HETATM   30  C5  UNL     1      -0.580  53.342 -28.016  1.00  0.00     0.023 C 
BRANCH  29  31
HETATM   31  C2  UNL     1       0.910  51.672 -26.751  1.00  0.00     0.017 C 
HETATM   32  C1  UNL     1       0.028  50.656 -26.688  1.00  0.00     0.026 C 
BRANCH  31  33
HETATM   33  C3  UNL     1       2.365  51.411 -26.598  1.00  0.00     0.172 C 
HETATM   34  O1  UNL     1       2.850  50.608 -25.819  1.00  0.00    -0.646 OA
BRANCH  33  35
HETATM   35  O2  UNL     1       3.145  52.151 -27.403  1.00  0.00    -0.773 OA
HETATM   36  H3  UNL     1       4.056  51.868 -27.179  1.00  0.00     0.167 HD
ENDBRANCH  33  35
ENDBRANCH  31  33
ENDBRANCH  29  31
ENDBRANCH  27  29
ENDBRANCH  26  27
ENDBRANCH  24  26
ENDBRANCH   1  24
TORSDOF 7
ENDMDL
