MODEL 1
REMARK minimizedAffinity -7.51828337
REMARK CNNscore 0.627051115
REMARK CNNaffinity 6.66795397
REMARK  9 active torsions:
REMARK  status: ('A' for Active; 'I' for Inactive)
REMARK    1  A    between atoms: C4_4  and  C5_5 
REMARK    2  A    between atoms: C5_5  and  C6_6 
REMARK    3  A    between atoms: C6_6  and  C7_7 
REMARK    4  A    between atoms: C7_7  and  C9_9 
REMARK    5  A    between atoms: C16_16  and  O1_17 
REMARK    6  A    between atoms: C25_27  and  C27_29 
REMARK    7  A    between atoms: C27_29  and  O4_31 
REMARK    8  A    between atoms: C28_32  and  O5_33 
REMARK    9  A    between atoms: C30_35  and  O6_36 
ROOT
HETATM    1  C9  UNL     1       3.612  55.382  -8.515  1.00  0.00    -0.002 C 
HETATM    2  C10 UNL     1       2.625  56.410  -7.904  1.00  0.00     0.007 C 
HETATM    3  C11 UNL     1       1.205  55.966  -8.309  1.00  0.00     0.015 C 
HETATM    4  C12 UNL     1       1.365  54.521  -8.828  1.00  0.00    -0.005 C 
HETATM    5  C13 UNL     1       1.363  53.586  -7.578  1.00  0.00     0.021 C 
HETATM    6  C14 UNL     1       0.324  53.907  -9.753  1.00  0.00     0.003 C 
HETATM    7  C15 UNL     1       0.638  52.911 -10.629  1.00  0.00    -0.030 C 
HETATM    8  C16 UNL     1       2.123  52.515 -10.836  1.00  0.00     0.149 C 
HETATM    9  C17 UNL     1       3.185  53.246  -9.980  1.00  0.00     0.047 C 
HETATM   10  C18 UNL     1       2.745  54.657  -9.588  1.00  0.00    -0.026 C 
HETATM   11  C19 UNL     1       2.638  55.516 -10.882  1.00  0.00     0.016 C 
HETATM   12  C20 UNL     1      -0.443  52.201 -11.537  1.00  0.00     0.014 C 
HETATM   13  C21 UNL     1      -0.156  52.681 -12.980  1.00  0.00     0.023 C 
HETATM   14  C22 UNL     1      -1.890  52.589 -11.076  1.00  0.00     0.029 C 
HETATM   15  C23 UNL     1      -2.004  54.086 -10.803  1.00  0.00     0.090 C 
HETATM   16  C24 UNL     1      -1.079  54.421  -9.668  1.00  0.00     0.157 C 
HETATM   17  O2  UNL     1      -1.461  55.115  -8.732  1.00  0.00    -0.293 OA
HETATM   18  C25 UNL     1      -3.077  51.943 -11.892  1.00  0.00     0.072 C 
HETATM   19  C26 UNL     1      -4.304  51.872 -10.936  1.00  0.00     0.030 C 
HETATM   20  C28 UNL     1      -2.737  50.484 -12.330  1.00  0.00     0.139 C 
HETATM   21  C29 UNL     1      -1.677  49.849 -11.440  1.00  0.00     0.065 C 
HETATM   22  C30 UNL     1      -0.351  50.634 -11.387  1.00  0.00     0.133 C 
ENDROOT
BRANCH   1  23
HETATM   23  C7  UNL     1       5.064  55.896  -8.758  1.00  0.00    -0.014 C 
HETATM   24  C8  UNL     1       5.739  56.229  -7.411  1.00  0.00     0.010 C 
BRANCH  23  25
HETATM   25  C6  UNL     1       6.083  55.084  -9.591  1.00  0.00     0.008 C 
BRANCH  25  26
HETATM   26  C5  UNL     1       7.035  54.125  -8.871  1.00  0.00     0.028 C 
BRANCH  26  27
HETATM   27  C4  UNL     1       6.625  52.679  -8.977  1.00  0.00    -0.025 C 
HETATM   28  C2  UNL     1       5.860  51.970  -8.126  1.00  0.00    -0.091 C 
HETATM   29  C1  UNL     1       5.527  50.531  -8.421  1.00  0.00     0.042 C 
HETATM   30  C3  UNL     1       5.279  52.494  -6.843  1.00  0.00     0.042 C 
ENDBRANCH  26  27
ENDBRANCH  25  26
ENDBRANCH  23  25
ENDBRANCH   1  23
BRANCH   8  31
HETATM   31  O1  UNL     1       2.336  51.131 -10.593  1.00  0.00    -0.391 OA
HETATM   32  H25 UNL     1       2.018  50.659 -11.392  1.00  0.00     0.210 HD
ENDBRANCH   8  31
BRANCH  22  33
HETATM   33  O6  UNL     1       0.612  50.112 -12.312  1.00  0.00    -0.394 OA
HETATM   34  H46 UNL     1       0.272  49.276 -12.684  1.00  0.00     0.210 HD
ENDBRANCH  22  33
BRANCH  18  35
HETATM   35  C27 UNL     1      -3.594  52.681 -13.123  1.00  0.00     0.151 C 
HETATM   36  O3  UNL     1      -3.431  52.303 -14.274  1.00  0.00    -0.649 OA
BRANCH  35  37
HETATM   37  O4  UNL     1      -4.259  53.819 -12.896  1.00  0.00    -0.776 OA
HETATM   38  H40 UNL     1      -4.491  54.152 -13.791  1.00  0.00     0.167 HD
ENDBRANCH  35  37
ENDBRANCH  18  35
BRANCH  20  39
HETATM   39  O5  UNL     1      -2.263  50.378 -13.671  1.00  0.00    -0.394 OA
HETATM   40  H42 UNL     1      -3.042  50.398 -14.259  1.00  0.00     0.210 HD
ENDBRANCH  20  39
TORSDOF 9
ENDMDL
