MODEL 1
REMARK minimizedAffinity -7.63350391
REMARK CNNscore 0.60813421
REMARK CNNaffinity 6.30661535
REMARK  11 active torsions:
REMARK  status: ('A' for Active; 'I' for Inactive)
REMARK    1  A    between atoms: O1_2  and  C2_3 
REMARK    2  A    between atoms: C4_5  and  O2_6 
REMARK    3  A    between atoms: O2_6  and  C5_7 
REMARK    4  A    between atoms: C8_10  and  C9_11 
REMARK    5  A    between atoms: N1_12  and  C10_14 
REMARK    6  A    between atoms: C10_14  and  C11_15 
REMARK    7  A    between atoms: C11_15  and  O3_16 
REMARK    8  A    between atoms: C17_22  and  C18_23 
REMARK    9  A    between atoms: C24_31  and  O6_32 
REMARK   10  A    between atoms: C28_36  and  O7_37 
REMARK   11  A    between atoms: C32_42  and  O9_43 
ROOT
HETATM    1  C5  UNL     1      -1.224   6.946  13.405  1.00  0.00     0.127 C 
HETATM    2  C6  UNL     1      -1.667   6.549  14.814  1.00  0.00     0.033 C 
HETATM    3  C7  UNL     1      -2.425   7.664  15.543  1.00  0.00     0.021 C 
HETATM    4  C8  UNL     1      -1.652   9.015  15.568  1.00  0.00     0.026 C 
HETATM    5  C12 UNL     1      -2.575  10.139  16.212  1.00  0.00     0.009 C 
HETATM    6  C13 UNL     1      -2.425  10.217  17.746  1.00  0.00     0.007 C 
HETATM    7  C14 UNL     1      -3.303  11.283  18.387  1.00  0.00     0.013 C 
HETATM    8  C15 UNL     1      -3.012  12.694  17.835  1.00  0.00    -0.005 C 
HETATM    9  C16 UNL     1      -1.631  13.186  18.313  1.00  0.00     0.019 C 
HETATM   10  C17 UNL     1      -4.136  13.709  18.244  1.00  0.00     0.028 C 
HETATM   11  C22 UNL     1      -5.267  13.454  17.223  1.00  0.00     0.013 C 
HETATM   12  C23 UNL     1      -4.650  12.688  16.053  1.00  0.00     0.040 C 
HETATM   13  C24 UNL     1      -3.125  12.701  16.285  1.00  0.00     0.070 C 
HETATM   14  C25 UNL     1      -2.435  11.533  15.522  1.00  0.00     0.026 C 
HETATM   15  C26 UNL     1      -0.982  11.774  15.085  1.00  0.00     0.011 C 
HETATM   16  C27 UNL     1      -0.518  10.746  14.035  1.00  0.00     0.039 C 
HETATM   17  C28 UNL     1      -1.264   9.394  14.105  1.00  0.00     0.073 C 
HETATM   18  C29 UNL     1      -0.458   8.277  13.420  1.00  0.00     0.071 C 
ENDROOT
BRANCH   1  19
HETATM   19  O2  UNL     1      -0.365   5.905  12.924  1.00  0.00    -0.356 OA
BRANCH  19  20
HETATM   20  C4  UNL     1       0.173   6.155  11.625  1.00  0.00     0.263 C 
HETATM   21  C3  UNL     1       1.680   6.335  11.805  1.00  0.00     0.095 C 
HETATM   22  C2  UNL     1       2.350   6.667  10.478  1.00  0.00     0.156 C 
HETATM   23  C32 UNL     1       1.639   7.863   9.816  1.00  0.00     0.175 C 
HETATM   24  C30 UNL     1       0.122   7.619   9.758  1.00  0.00     0.151 C 
HETATM   25  O8  UNL     1      -0.393   7.337  11.064  1.00  0.00    -0.354 OA
HETATM   26  C31 UNL     1      -0.618   8.843   9.230  1.00  0.00     0.042 C 
BRANCH  22  27
HETATM   27  O1  UNL     1       2.274   5.567   9.549  1.00  0.00    -0.388 OA
HETATM   28  C1  UNL     1       3.482   4.820   9.455  1.00  0.00     0.202 C 
ENDBRANCH  22  27
BRANCH  23  29
HETATM   29  O9  UNL     1       2.171   8.062   8.502  1.00  0.00    -0.390 OA
HETATM   30  H49 UNL     1       2.309   7.160   8.143  1.00  0.00     0.210 HD
ENDBRANCH  23  29
ENDBRANCH  19  20
ENDBRANCH   1  19
BRANCH  17  31
HETATM   31  O7  UNL     1      -2.479   9.542  13.340  1.00  0.00    -0.389 OA
HETATM   32  H41 UNL     1      -2.235   9.713  12.412  1.00  0.00     0.210 HD
ENDBRANCH  17  31
BRANCH   4  33
HETATM   33  C9  UNL     1      -0.357   8.844  16.390  1.00  0.00     0.068 C 
HETATM   34  N1  UNL     1       0.815   8.998  15.871  1.00  0.00    -0.399 N 
ATOM     35  H1  UNL     1       0.962   9.270  14.899  1.00  0.00     0.158 HD
BRANCH  34  36
HETATM   36  C10 UNL     1       1.918   8.745  16.810  1.00  0.00     0.144 C 
BRANCH  36  37
HETATM   37  C11 UNL     1       2.285  10.071  17.472  1.00  0.00     0.183 C 
BRANCH  37  38
HETATM   38  O3  UNL     1       2.352   9.891  18.887  1.00  0.00    -0.399 OA
HETATM   39  H18 UNL     1       2.890   9.082  18.998  1.00  0.00     0.209 HD
ENDBRANCH  37  38
ENDBRANCH  36  37
ENDBRANCH  34  36
ENDBRANCH   4  33
BRANCH  13  40
HETATM   40  O6  UNL     1      -2.654  13.956  15.777  1.00  0.00    -0.389 OA
HETATM   41  H35 UNL     1      -2.845  13.981  14.823  1.00  0.00     0.210 HD
ENDBRANCH  13  40
BRANCH  10  42
HETATM   42  C18 UNL     1      -4.572  13.747  19.688  1.00  0.00    -0.045 A 
HETATM   43  C19 UNL     1      -5.485  12.997  20.309  1.00  0.00     0.087 A 
HETATM   44  C20 UNL     1      -5.608  13.490  21.679  1.00  0.00     0.283 A 
HETATM   45  O4  UNL     1      -6.350  13.021  22.521  1.00  0.00    -0.260 OA
HETATM   46  O5  UNL     1      -4.776  14.550  21.844  1.00  0.00    -0.314 OA
HETATM   47  C21 UNL     1      -4.053  14.770  20.633  1.00  0.00     0.213 A 
ENDBRANCH  10  42
TORSDOF 11
ENDMDL
