MODEL 1
REMARK minimizedAffinity -10.3482819
REMARK  9 active torsions:
REMARK  status: ('A' for Active; 'I' for Inactive)
REMARK    1  A    between atoms: C2_2  and  C3_3 
REMARK    2  A    between atoms: C2_2  and  C11_13 
REMARK    3  A    between atoms: C3_3  and  C4_4 
REMARK    4  A    between atoms: C4_4  and  C5_5 
REMARK    5  A    between atoms: C5_5  and  C8_9 
REMARK    6  A    between atoms: C6_6  and  C7_7 
REMARK    7  A    between atoms: C7_7  and  O1_8 
REMARK    8  A    between atoms: C8_9  and  O2_12 
REMARK    9  A    between atoms: C25_27  and  O3_28 
ROOT
HETATM    1  C11 UNL     1      -0.980  51.147 -25.097  1.00  0.00     0.005 C 
HETATM    2  C12 UNL     1      -0.169  52.452 -25.261  1.00  0.00     0.033 C 
HETATM    3  C13 UNL     1       0.297  52.725 -23.872  1.00  0.00    -0.018 C 
HETATM    4  C14 UNL     1      -0.423  52.050 -22.966  1.00  0.00    -0.047 C 
HETATM    5  C15 UNL     1      -0.248  52.021 -21.523  1.00  0.00    -0.048 C 
HETATM    6  C16 UNL     1      -0.880  51.083 -20.772  1.00  0.00    -0.064 C 
HETATM    7  C17 UNL     1      -1.763  50.019 -21.414  1.00  0.00     0.036 C 
HETATM    8  C18 UNL     1      -1.613  49.887 -22.935  1.00  0.00     0.019 C 
HETATM    9  C19 UNL     1      -1.531  51.250 -23.633  1.00  0.00    -0.012 C 
HETATM   10  C20 UNL     1      -2.856  52.032 -23.528  1.00  0.00     0.021 C 
HETATM   11  C21 UNL     1      -0.793  51.088 -19.228  1.00  0.00    -0.016 C 
HETATM   12  C22 UNL     1      -2.074  51.800 -18.724  1.00  0.00     0.020 C 
HETATM   13  C23 UNL     1      -0.735  49.661 -18.609  1.00  0.00     0.016 C 
HETATM   14  C24 UNL     1      -0.521  49.659 -17.093  1.00  0.00     0.033 C 
HETATM   15  C25 UNL     1       0.709  50.462 -16.681  1.00  0.00     0.118 C 
HETATM   16  C26 UNL     1       0.701  51.872 -17.269  1.00  0.00     0.037 C 
HETATM   17  C27 UNL     1       0.514  51.825 -18.790  1.00  0.00     0.001 C 
HETATM   18  C28 UNL     1       0.596  53.216 -19.410  1.00  0.00     0.010 C 
HETATM   19  C29 UNL     1       0.624  53.112 -20.933  1.00  0.00     0.040 C 
ENDROOT
BRANCH   1  20
HETATM   20  C2  UNL     1      -1.987  50.925 -26.258  1.00  0.00    -0.013 C 
HETATM   21  C1  UNL     1      -3.318  51.653 -26.041  1.00  0.00     0.010 C 
BRANCH  20  22
HETATM   22  C3  UNL     1      -2.245  49.419 -26.548  1.00  0.00     0.009 C 
BRANCH  22  23
HETATM   23  C4  UNL     1      -3.022  48.660 -25.455  1.00  0.00     0.037 C 
BRANCH  23  24
HETATM   24  C5  UNL     1      -4.513  48.525 -25.764  1.00  0.00    -0.049 C 
HETATM   25  C6  UNL     1      -4.950  48.298 -27.025  1.00  0.00     0.004 C 
BRANCH  25  26
HETATM   26  C7  UNL     1      -4.145  48.149 -28.277  1.00  0.00     0.191 C 
BRANCH  26  27
HETATM   27  O1  UNL     1      -4.563  49.157 -29.185  1.00  0.00    -0.397 OA
HETATM   28  H12 UNL     1      -5.513  49.014 -29.344  1.00  0.00     0.209 HD
ENDBRANCH  26  27
ENDBRANCH  25  26
BRANCH  24  29
HETATM   29  C8  UNL     1      -5.463  48.598 -24.552  1.00  0.00     0.074 C 
HETATM   30  C9  UNL     1      -6.748  47.786 -24.759  1.00  0.00     0.050 C 
HETATM   31  C10 UNL     1      -4.852  48.182 -23.203  1.00  0.00     0.050 C 
BRANCH  29  32
HETATM   32  O2  UNL     1      -5.850  49.970 -24.408  1.00  0.00    -0.386 OA
HETATM   33  H19 UNL     1      -5.029  50.487 -24.350  1.00  0.00     0.211 HD
ENDBRANCH  29  32
ENDBRANCH  24  29
ENDBRANCH  23  24
ENDBRANCH  22  23
ENDBRANCH  20  22
ENDBRANCH   1  20
BRANCH  15  34
HETATM   34  O3  UNL     1       0.779  50.538 -15.261  1.00  0.00    -0.396 OA
HETATM   35  H39 UNL     1      -0.015  51.001 -14.943  1.00  0.00     0.210 HD
ENDBRANCH  15  34
TORSDOF 9
ENDMDL
