MODEL 1
REMARK minimizedAffinity -7.34016609
REMARK CNNscore 0.790262818
REMARK CNNaffinity 7.06574678
REMARK  6 active torsions:
REMARK  status: ('A' for Active; 'I' for Inactive)
REMARK    1  A    between atoms: C2_2  and  C3_3 
REMARK    2  A    between atoms: C2_2  and  C27_30 
REMARK    3  A    between atoms: C3_3  and  C4_4 
REMARK    4  A    between atoms: C4_4  and  C5_5 
REMARK    5  A    between atoms: C5_5  and  C7_7 
REMARK    6  A    between atoms: C26_28  and  O3_29 
ROOT
HETATM    1  C7  UNL     1       3.485  56.089  -9.426  1.00  0.00    -0.002 C 
HETATM    2  C8  UNL     1       4.377  55.188 -10.316  1.00  0.00     0.006 C 
HETATM    3  C9  UNL     1       3.432  54.157 -10.967  1.00  0.00     0.010 C 
HETATM    4  C10 UNL     1       2.025  54.611 -10.564  1.00  0.00     0.027 C 
HETATM    5  C11 UNL     1       0.838  53.682 -10.637  1.00  0.00    -0.036 C 
HETATM    6  C12 UNL     1      -0.263  53.895  -9.872  1.00  0.00     0.002 C 
HETATM    7  C13 UNL     1      -0.248  55.047  -8.877  1.00  0.00     0.157 C 
HETATM    8  O1  UNL     1      -1.221  55.274  -8.160  1.00  0.00    -0.293 OA
HETATM    9  C14 UNL     1       0.976  55.944  -8.775  1.00  0.00     0.093 C 
HETATM   10  C15 UNL     1       2.247  55.185  -9.150  1.00  0.00    -0.026 C 
HETATM   11  C16 UNL     1       2.543  54.106  -8.078  1.00  0.00     0.016 C 
HETATM   12  C17 UNL     1      -1.531  53.016  -9.957  1.00  0.00    -0.008 C 
HETATM   13  C18 UNL     1      -1.509  52.105  -8.700  1.00  0.00     0.021 C 
HETATM   14  C19 UNL     1      -2.849  53.857  -9.955  1.00  0.00     0.022 C 
HETATM   15  C20 UNL     1      -4.023  53.265 -10.735  1.00  0.00     0.080 C 
HETATM   16  C21 UNL     1      -3.969  51.761 -10.791  1.00  0.00     0.131 C 
HETATM   17  O2  UNL     1      -4.941  51.069 -10.487  1.00  0.00    -0.298 OA
HETATM   18  C22 UNL     1      -2.686  51.138 -11.319  1.00  0.00     0.056 C 
HETATM   19  C23 UNL     1      -2.956  50.599 -12.724  1.00  0.00     0.018 C 
HETATM   20  C24 UNL     1      -1.534  52.173 -11.284  1.00  0.00     0.012 C 
HETATM   21  C25 UNL     1      -0.169  51.516 -11.531  1.00  0.00     0.042 C 
HETATM   22  C26 UNL     1       0.925  52.576 -11.653  1.00  0.00     0.148 C 
ENDROOT
BRANCH   1  23
HETATM   23  C5  UNL     1       4.139  56.765  -8.190  1.00  0.00    -0.014 C 
HETATM   24  C6  UNL     1       3.199  57.587  -7.309  1.00  0.00     0.010 C 
BRANCH  23  25
HETATM   25  C4  UNL     1       4.988  55.764  -7.362  1.00  0.00     0.009 C 
BRANCH  25  26
HETATM   26  C3  UNL     1       6.506  55.986  -7.285  1.00  0.00     0.034 C 
BRANCH  26  27
HETATM   27  C2  UNL     1       7.170  55.823  -5.931  1.00  0.00    -0.086 C 
HETATM   28  C1  UNL     1       7.710  54.638  -5.587  1.00  0.00     0.014 C 
BRANCH  27  29
HETATM   29  C27 UNL     1       7.332  57.016  -4.990  1.00  0.00     0.005 C 
HETATM   30  C28 UNL     1       8.783  57.321  -4.613  1.00  0.00     0.014 C 
HETATM   31  C29 UNL     1       6.631  58.273  -5.512  1.00  0.00     0.014 C 
ENDBRANCH  27  29
ENDBRANCH  26  27
ENDBRANCH  25  26
ENDBRANCH  23  25
ENDBRANCH   1  23
BRANCH  22  32
HETATM   32  O3  UNL     1       0.843  53.194 -12.933  1.00  0.00    -0.391 OA
HETATM   33  H37 UNL     1       1.096  52.529 -13.595  1.00  0.00     0.210 HD
ENDBRANCH  22  32
TORSDOF 6
ENDMDL
