MODEL 1
REMARK minimizedAffinity -7.55981064
REMARK CNNscore 0.541275322
REMARK CNNaffinity 5.85106468
REMARK  6 active torsions:
REMARK  status: ('A' for Active; 'I' for Inactive)
REMARK    1  A    between atoms: C2_2  and  O2_4 
REMARK    2  A    between atoms: O2_4  and  C3_5 
REMARK    3  A    between atoms: C12_15  and  O4_16 
REMARK    4  A    between atoms: C17_22  and  C18_23 
REMARK    5  A    between atoms: C18_23  and  C19_24 
REMARK       I    between atoms: C27_33  and  N3_34 
REMARK    6  A    between atoms: C35_45  and  O5_46 
ROOT
HETATM    1  C3  UNL     1       5.093  59.932  -3.142  1.00  0.00     0.134 C 
HETATM    2  C4  UNL     1       6.591  59.572  -3.182  1.00  0.00     0.037 C 
HETATM    3  C5  UNL     1       7.176  59.299  -4.574  1.00  0.00     0.042 C 
HETATM    4  C6  UNL     1       8.691  59.313  -4.582  1.00  0.00    -0.048 A 
HETATM    5  C7  UNL     1       9.439  60.514  -4.593  1.00  0.00    -0.015 A 
HETATM    6  C8  UNL     1       8.776  61.868  -4.630  1.00  0.00     0.044 C 
HETATM    7  C9  UNL     1       9.764  62.961  -5.007  1.00  0.00     0.031 C 
HETATM    8  C10 UNL     1      11.029  62.766  -4.197  1.00  0.00     0.176 C 
HETATM    9  O3  UNL     1      11.673  61.534  -4.524  1.00  0.00    -0.348 OA
HETATM   10  C11 UNL     1      10.840  60.440  -4.548  1.00  0.00     0.109 A 
HETATM   11  C12 UNL     1      11.488  59.202  -4.558  1.00  0.00     0.107 A 
HETATM   12  C13 UNL     1      10.773  58.006  -4.564  1.00  0.00    -0.004 A 
HETATM   13  C14 UNL     1       9.370  58.078  -4.574  1.00  0.00     0.019 A 
HETATM   14  C15 UNL     1      11.488  56.679  -4.586  1.00  0.00     0.167 C 
HETATM   15  N1  UNL     1      10.970  55.738  -3.600  1.00  0.00    -0.347 N 
HETATM   16  C16 UNL     1      10.482  54.428  -3.955  1.00  0.00     0.136 C 
HETATM   17  C17 UNL     1      10.733  53.574  -2.698  1.00  0.00    -0.011 C 
HETATM   18  C25 UNL     1       9.697  52.437  -2.493  1.00  0.00     0.032 C 
HETATM   19  C26 UNL     1       8.213  52.816  -2.419  1.00  0.00     0.139 C 
HETATM   20  N2  UNL     1       7.566  52.826  -3.747  1.00  0.00    -0.227 N 
HETATM   21  C27 UNL     1       6.761  53.784  -4.254  1.00  0.00     0.668 C 
HETATM   22  N3  UNL     1       6.614  54.968  -3.641  1.00  0.00    -0.235 N 
HETATM   23  N4  UNL     1       6.074  53.584  -5.393  1.00  0.00    -0.217 N 
HETATM   24  C28 UNL     1       6.025  52.338  -6.139  1.00  0.00     0.224 C 
HETATM   25  S1  UNL     1       5.253  52.619  -7.750  1.00  0.00    -0.077 SA
HETATM   26  S2  UNL     1       6.652  53.735  -8.777  1.00  0.00    -0.096 SA
HETATM   27  C29 UNL     1       6.334  55.477  -8.308  1.00  0.00     0.086 C 
HETATM   28  C30 UNL     1       4.860  55.886  -8.312  1.00  0.00     0.011 C 
HETATM   29  C31 UNL     1       4.704  57.341  -7.859  1.00  0.00     0.001 C 
HETATM   30  C32 UNL     1       3.250  57.739  -7.589  1.00  0.00     0.000 C 
HETATM   31  C33 UNL     1       2.577  57.076  -6.380  1.00  0.00     0.002 C 
HETATM   32  C34 UNL     1       2.678  57.868  -5.066  1.00  0.00     0.032 C 
HETATM   33  C35 UNL     1       4.087  57.926  -4.459  1.00  0.00     0.120 C 
HETATM   34  C36 UNL     1       4.139  58.721  -3.144  1.00  0.00     0.064 C 
HETATM   35  C37 UNL     1      10.672  54.634  -1.575  1.00  0.00     0.114 C 
HETATM   36  C38 UNL     1      11.191  55.880  -2.238  1.00  0.00     0.220 C 
HETATM   37  O6  UNL     1      11.667  56.833  -1.650  1.00  0.00    -0.273 OA
HETATM   38  H32 UNL     1       7.698  51.990  -4.297  1.00  0.00     0.177 HD
HETATM   39  H33 UNL     1       7.102  55.211  -2.791  1.00  0.00     0.174 HD
HETATM   40  H34 UNL     1       5.956  55.676  -3.994  1.00  0.00     0.174 HD
HETATM   41  H35 UNL     1       5.525  54.353  -5.752  1.00  0.00     0.178 HD
ENDROOT
BRANCH  17  42
HETATM   42  C18 UNL     1      12.178  52.975  -2.845  1.00  0.00     0.050 C 
BRANCH  42  43
HETATM   43  C19 UNL     1      12.616  52.540  -4.222  1.00  0.00    -0.057 A 
HETATM   44  C20 UNL     1      13.461  53.351  -4.996  1.00  0.00     0.007 A 
HETATM   45  C21 UNL     1      13.854  52.955  -6.274  1.00  0.00     0.001 A 
HETATM   46  C22 UNL     1      13.395  51.751  -6.803  1.00  0.00     0.000 A 
HETATM   47  C23 UNL     1      12.553  50.934  -6.049  1.00  0.00     0.001 A 
HETATM   48  C24 UNL     1      12.163  51.328  -4.767  1.00  0.00     0.007 A 
ENDBRANCH  42  43
ENDBRANCH  17  42
BRANCH  11  49
HETATM   49  O4  UNL     1      12.863  59.175  -4.556  1.00  0.00    -0.357 OA
HETATM   50  H15 UNL     1      13.122  60.077  -4.292  1.00  0.00     0.217 HD
ENDBRANCH  11  49
BRANCH   1  51
HETATM   51  O2  UNL     1       4.723  60.801  -4.226  1.00  0.00    -0.316 OA
BRANCH  51  52
HETATM   52  C2  UNL     1       4.275  62.041  -3.867  1.00  0.00     0.255 C 
HETATM   53  C1  UNL     1       4.257  62.163  -2.375  1.00  0.00     0.126 C 
HETATM   54  O1  UNL     1       3.915  62.916  -4.641  1.00  0.00    -0.266 OA
ENDBRANCH  51  52
ENDBRANCH   1  51
BRANCH  33  55
HETATM   55  O5  UNL     1       4.547  56.581  -4.199  1.00  0.00    -0.395 OA
HETATM   56  H51 UNL     1       3.824  56.181  -3.661  1.00  0.00     0.210 HD
ENDBRANCH  33  55
TORSDOF 6
ENDMDL
