MODEL 1
REMARK minimizedAffinity -10.5114393
REMARK CNNscore 0.356068403
REMARK CNNaffinity 7.03063726
REMARK  11 active torsions:
REMARK  status: ('A' for Active; 'I' for Inactive)
REMARK    1  A    between atoms: O1_2  and  C2_3 
REMARK    2  A    between atoms: C16_18  and  C17_19 
REMARK    3  A    between atoms: C17_19  and  C19_21 
REMARK    4  A    between atoms: C23_25  and  C24_26 
REMARK    5  A    between atoms: C24_26  and  O3_27 
REMARK    6  A    between atoms: O3_27  and  C25_28 
REMARK    7  A    between atoms: C26_30  and  C27_31 
REMARK    8  A    between atoms: C27_31  and  O5_32 
REMARK    9  A    between atoms: C28_33  and  O6_34 
REMARK   10  A    between atoms: C29_35  and  O7_36 
REMARK   11  A    between atoms: C30_37  and  O8_38 
ROOT
HETATM    1  C19 UNL     1       1.686   7.770  11.874  1.00  0.00     0.140 C 
HETATM    2  C20 UNL     1       1.825   9.202  12.404  1.00  0.00     0.067 C 
HETATM    3  C21 UNL     1       3.264   9.621  12.530  1.00  0.00    -0.067 C 
HETATM    4  C22 UNL     1       3.497  10.791  13.448  1.00  0.00     0.044 C 
HETATM    5  C23 UNL     1       4.221   9.007  11.802  1.00  0.00     0.043 C 
HETATM    6  C31 UNL     1       3.862   7.936  10.837  1.00  0.00     0.292 C 
HETATM    7  O9  UNL     1       4.705   7.400  10.129  1.00  0.00    -0.260 OA
HETATM    8  O10 UNL     1       2.548   7.624  10.732  1.00  0.00    -0.311 OA
ENDROOT
BRANCH   1   9
HETATM    9  C17 UNL     1       0.236   7.423  11.420  1.00  0.00     0.016 C 
HETATM   10  C18 UNL     1      -0.489   8.660  10.844  1.00  0.00     0.013 C 
BRANCH   9  11
HETATM   11  C16 UNL     1      -0.718   6.764  12.465  1.00  0.00     0.000 C 
HETATM   12  C14 UNL     1      -0.511   5.333  13.043  1.00  0.00    -0.036 C 
HETATM   13  C13 UNL     1      -0.555   4.198  12.013  1.00  0.00     0.010 C 
HETATM   14  C15 UNL     1       0.802   5.160  13.850  1.00  0.00     0.016 C 
HETATM   15  C34 UNL     1      -1.714   5.279  14.036  1.00  0.00     0.001 C 
HETATM   16  C12 UNL     1      -1.916   3.969  11.382  1.00  0.00     0.007 C 
HETATM   17  C11 UNL     1      -3.014   3.707  12.430  1.00  0.00     0.008 C 
HETATM   18  C9  UNL     1      -4.396   3.298  11.758  1.00  0.00     0.025 C 
HETATM   19  C35 UNL     1      -3.123   4.900  13.445  1.00  0.00     0.024 C 
HETATM   20  C4  UNL     1      -5.542   3.818  12.660  1.00  0.00     0.004 C 
HETATM   21  C8  UNL     1      -4.511   1.758  11.679  1.00  0.00     0.136 C 
HETATM   22  C10 UNL     1      -4.549   3.802  10.300  1.00  0.00     0.024 C 
HETATM   23  C3  UNL     1      -5.522   5.354  12.741  1.00  0.00     0.038 C 
HETATM   24  C5  UNL     1      -6.933   3.295  12.272  1.00  0.00     0.006 C 
HETATM   25  C2  UNL     1      -4.099   5.960  12.869  1.00  0.00     0.126 C 
HETATM   26  C6  UNL     1      -6.950   1.768  12.292  1.00  0.00     0.008 C 
HETATM   27  C7  UNL     1      -5.883   1.176  11.387  1.00  0.00     0.079 C 
HETATM   28  O2  UNL     1      -3.529   1.015  11.740  1.00  0.00    -0.297 OA
HETATM   29  C33 UNL     1      -1.606   6.636  14.749  1.00  0.00     0.006 C 
HETATM   30  C32 UNL     1      -1.043   7.617  13.711  1.00  0.00     0.006 C 
BRANCH  25  31
HETATM   31  O1  UNL     1      -4.195   7.121  13.693  1.00  0.00    -0.390 OA
HETATM   32  C1  UNL     1      -5.186   8.049  13.262  1.00  0.00     0.202 C 
ENDBRANCH  25  31
ENDBRANCH   9  11
ENDBRANCH   1   9
BRANCH   5  33
HETATM   33  C24 UNL     1       5.676   9.389  11.797  1.00  0.00     0.216 C 
BRANCH  33  34
HETATM   34  O3  UNL     1       6.369   8.478  12.649  1.00  0.00    -0.354 OA
BRANCH  34  35
HETATM   35  C25 UNL     1       6.302   8.842  14.028  1.00  0.00     0.291 C 
HETATM   36  O4  UNL     1       7.136   9.964  14.306  1.00  0.00    -0.348 OA
HETATM   37  C26 UNL     1       8.554   9.746  14.163  1.00  0.00     0.179 C 
HETATM   38  C28 UNL     1       8.989   8.259  14.168  1.00  0.00     0.180 C 
HETATM   39  C29 UNL     1       8.160   7.499  15.206  1.00  0.00     0.183 C 
HETATM   40  C30 UNL     1       6.650   7.617  14.912  1.00  0.00     0.204 C 
BRANCH  37  41
HETATM   41  C27 UNL     1       9.104  10.539  12.966  1.00  0.00     0.198 C 
BRANCH  41  42
HETATM   42  O5  UNL     1      10.414  10.114  12.599  1.00  0.00    -0.398 OA
HETATM   43  H42 UNL     1      10.761  10.768  11.968  1.00  0.00     0.209 HD
ENDBRANCH  41  42
ENDBRANCH  37  41
BRANCH  38  44
HETATM   44  O6  UNL     1       8.872   7.610  12.899  1.00  0.00    -0.390 OA
HETATM   45  H44 UNL     1       8.447   8.250  12.276  1.00  0.00     0.210 HD
ENDBRANCH  38  44
BRANCH  39  46
HETATM   46  O7  UNL     1       8.472   7.994  16.521  1.00  0.00    -0.390 OA
HETATM   47  H46 UNL     1       7.922   8.779  16.697  1.00  0.00     0.210 HD
ENDBRANCH  39  46
BRANCH  40  48
HETATM   48  O8  UNL     1       6.159   6.418  14.293  1.00  0.00    -0.388 OA
HETATM   49  H48 UNL     1       6.443   6.486  13.356  1.00  0.00     0.210 HD
ENDBRANCH  40  48
ENDBRANCH  34  35
ENDBRANCH  33  34
ENDBRANCH   5  33
TORSDOF 11
ENDMDL
