MODEL 1
REMARK minimizedAffinity -7.70849323
REMARK CNNscore 0.410587013
REMARK CNNaffinity 6.33323717
REMARK  12 active torsions:
REMARK  status: ('A' for Active; 'I' for Inactive)
REMARK    1  A    between atoms: O1_2  and  C2_3 
REMARK    2  A    between atoms: C3_5  and  C4_6 
REMARK    3  A    between atoms: C4_6  and  O3_7 
REMARK    4  A    between atoms: C4_6  and  C5_8 
REMARK    5  A    between atoms: C5_8  and  O4_10 
REMARK    6  A    between atoms: C5_8  and  C7_11 
REMARK    7  A    between atoms: C7_11  and  O5_12 
REMARK    8  A    between atoms: C9_14  and  C10_15 
REMARK    9  A    between atoms: C23_28  and  O6_29 
REMARK   10  A    between atoms: O6_29  and  C24_30 
REMARK   11  A    between atoms: C24_30  and  C25_32 
REMARK   12  A    between atoms: C34_41  and  O8_42 
ROOT
HETATM    1  C10 UNL     1      -9.613  -7.754  -3.987  1.00  0.00     0.004 C 
HETATM    2  C11 UNL     1     -10.974  -7.721  -3.253  1.00  0.00     0.007 C 
HETATM    3  C12 UNL     1     -10.806  -8.663  -2.048  1.00  0.00     0.011 C 
HETATM    4  C13 UNL     1      -9.318  -8.636  -1.714  1.00  0.00    -0.021 A 
HETATM    5  C14 UNL     1      -8.715  -7.251  -1.561  1.00  0.00     0.022 A 
HETATM    6  C15 UNL     1      -8.590  -8.002  -2.875  1.00  0.00    -0.027 A 
HETATM    7  C16 UNL     1      -7.200  -8.437  -3.276  1.00  0.00     0.011 C 
HETATM    8  C17 UNL     1      -6.707  -9.725  -2.608  1.00  0.00     0.007 C 
HETATM    9  C18 UNL     1      -7.114  -9.814  -1.121  1.00  0.00     0.005 C 
HETATM   10  C19 UNL     1      -6.282 -10.861  -0.257  1.00  0.00    -0.035 C 
HETATM   11  C20 UNL     1      -6.312 -12.282  -0.869  1.00  0.00     0.016 C 
HETATM   12  C21 UNL     1      -4.782 -10.392  -0.241  1.00  0.00     0.012 C 
HETATM   13  C22 UNL     1      -4.030 -10.638   1.071  1.00  0.00     0.034 C 
HETATM   14  C23 UNL     1      -4.529 -11.863   1.829  1.00  0.00     0.140 C 
HETATM   15  C29 UNL     1      -6.025 -11.713   2.257  1.00  0.00    -0.016 C 
HETATM   16  C30 UNL     1      -6.617 -13.127   2.444  1.00  0.00     0.018 C 
HETATM   17  C31 UNL     1      -6.121 -11.018   3.645  1.00  0.00     0.018 C 
HETATM   18  C32 UNL     1      -6.820 -10.826   1.217  1.00  0.00     0.007 C 
HETATM   19  C33 UNL     1      -8.357 -10.997   1.283  1.00  0.00     0.038 C 
HETATM   20  C34 UNL     1      -9.095  -9.904   0.496  1.00  0.00     0.128 C 
HETATM   21  C35 UNL     1      -8.688  -9.880  -1.005  1.00  0.00    -0.005 C 
HETATM   22  C36 UNL     1      -9.262 -11.153  -1.691  1.00  0.00     0.019 C 
ENDROOT
BRANCH   1  23
HETATM   23  C9  UNL     1      -9.252  -6.549  -4.868  1.00  0.00     0.048 C 
HETATM   24  C2  UNL     1      -9.736  -6.583  -6.318  1.00  0.00     0.264 C 
HETATM   25  O2  UNL     1      -9.556  -5.246  -6.807  1.00  0.00    -0.353 OA
HETATM   26  C3  UNL     1      -9.481  -4.344  -5.683  1.00  0.00     0.157 C 
HETATM   27  C8  UNL     1      -9.762  -5.186  -4.437  1.00  0.00     0.044 C 
BRANCH  24  28
HETATM   28  O1  UNL     1     -11.102  -6.969  -6.396  1.00  0.00    -0.366 OA
HETATM   29  C1  UNL     1     -11.749  -6.419  -7.533  1.00  0.00     0.204 C 
ENDBRANCH  24  28
BRANCH  26  30
HETATM   30  C4  UNL     1     -10.439  -3.139  -5.822  1.00  0.00     0.183 C 
BRANCH  30  31
HETATM   31  O3  UNL     1     -10.678  -2.859  -7.209  1.00  0.00    -0.390 OA
HETATM   32  H7  UNL     1     -11.599  -2.560  -7.293  1.00  0.00     0.210 HD
ENDBRANCH  30  31
BRANCH  30  33
HETATM   33  C5  UNL     1      -9.977  -1.855  -5.079  1.00  0.00     0.103 C 
HETATM   34  C6  UNL     1     -10.316  -0.613  -5.923  1.00  0.00     0.051 C 
BRANCH  33  35
HETATM   35  O4  UNL     1     -10.726  -1.725  -3.855  1.00  0.00    -0.385 OA
HETATM   36  H11 UNL     1     -10.247  -1.039  -3.344  1.00  0.00     0.210 HD
ENDBRANCH  33  35
BRANCH  33  37
HETATM   37  C7  UNL     1      -8.477  -1.857  -4.724  1.00  0.00     0.204 C 
BRANCH  37  38
HETATM   38  O5  UNL     1      -7.778  -0.977  -5.620  1.00  0.00    -0.398 OA
HETATM   39  H14 UNL     1      -6.835  -1.049  -5.386  1.00  0.00     0.209 HD
ENDBRANCH  37  38
ENDBRANCH  33  37
ENDBRANCH  30  33
ENDBRANCH  26  30
ENDBRANCH   1  23
BRANCH  20  40
HETATM   40  O8  UNL     1      -8.805  -8.651   1.124  1.00  0.00    -0.395 OA
HETATM   41  H55 UNL     1      -9.206  -8.668   2.010  1.00  0.00     0.210 HD
ENDBRANCH  20  40
BRANCH  14  42
HETATM   42  O6  UNL     1      -3.688 -12.035   2.990  1.00  0.00    -0.312 OA
BRANCH  42  43
HETATM   43  C24 UNL     1      -2.515 -11.364   3.020  1.00  0.00     0.283 C 
HETATM   44  O7  UNL     1      -1.471 -11.693   2.480  1.00  0.00    -0.260 OA
BRANCH  43  45
HETATM   45  C25 UNL     1      -2.600 -10.179   3.902  1.00  0.00     0.084 C 
HETATM   46  C26 UNL     1      -2.710 -10.139   5.245  1.00  0.00    -0.082 C 
HETATM   47  C27 UNL     1      -2.842 -11.338   6.144  1.00  0.00     0.043 C 
HETATM   48  C28 UNL     1      -2.738  -8.816   5.962  1.00  0.00     0.043 C 
ENDBRANCH  43  45
ENDBRANCH  42  43
ENDBRANCH  14  42
TORSDOF 12
ENDMDL
