MODEL 1
REMARK minimizedAffinity -7.96068001
REMARK CNNscore 0.723252833
REMARK CNNaffinity 6.17299128
REMARK  11 active torsions:
REMARK  status: ('A' for Active; 'I' for Inactive)
REMARK    1  A    between atoms: C12_13  and  O2_14 
REMARK    2  A    between atoms: C19_21  and  O3_22 
REMARK    3  A    between atoms: C19_21  and  C20_23 
REMARK    4  A    between atoms: C20_23  and  C21_25 
REMARK    5  A    between atoms: C21_25  and  O5_26 
REMARK    6  A    between atoms: O5_26  and  C22_27 
REMARK    7  A    between atoms: C22_27  and  C23_29 
REMARK    8  A    between atoms: C23_29  and  C24_30 
REMARK    9  A    between atoms: C24_30  and  C25_31 
REMARK       I    between atoms: C25_31  and  N1_33 
REMARK   10  A    between atoms: N1_33  and  C26_34 
REMARK   11  A    between atoms: C26_34  and  C27_35 
ROOT
HETATM    1  C1  UNL     1     -10.408  14.260  22.773  1.00  0.00     0.025 C 
HETATM    2  C2  UNL     1      -9.442  13.074  22.548  1.00  0.00     0.004 A 
HETATM    3  C3  UNL     1      -8.238  13.331  23.449  1.00  0.00    -0.009 A 
HETATM    4  C4  UNL     1      -6.986  13.545  23.024  1.00  0.00     0.052 A 
HETATM    5  C5  UNL     1      -6.663  13.544  21.586  1.00  0.00     0.172 A 
HETATM    6  O1  UNL     1      -5.521  13.741  21.189  1.00  0.00    -0.289 OA
HETATM    7  C6  UNL     1      -7.770  13.285  20.643  1.00  0.00     0.058 A 
HETATM    8  C7  UNL     1      -9.028  13.068  21.069  1.00  0.00    -0.064 A 
HETATM    9  C8  UNL     1     -10.121  12.745  20.082  1.00  0.00     0.036 C 
HETATM   10  C9  UNL     1     -10.732  11.386  20.399  1.00  0.00     0.010 C 
HETATM   11  C10 UNL     1     -11.215  11.286  21.857  1.00  0.00    -0.002 C 
HETATM   12  C11 UNL     1     -10.068  11.660  22.861  1.00  0.00     0.035 C 
HETATM   13  C12 UNL     1     -10.484  11.413  24.343  1.00  0.00     0.124 C 
HETATM   14  C13 UNL     1     -11.115  10.022  24.578  1.00  0.00     0.045 C 
HETATM   15  C14 UNL     1     -12.260   9.694  23.596  1.00  0.00     0.001 C 
HETATM   16  C15 UNL     1     -13.496  10.593  23.875  1.00  0.00     0.019 C 
HETATM   17  C16 UNL     1     -11.695   9.860  22.167  1.00  0.00     0.002 C 
HETATM   18  C17 UNL     1     -12.770   9.235  21.284  1.00  0.00     0.009 C 
HETATM   19  C18 UNL     1     -13.337   8.071  22.127  1.00  0.00     0.047 C 
HETATM   20  C19 UNL     1     -12.705   8.200  23.532  1.00  0.00     0.128 C 
ENDROOT
BRANCH  20  21
HETATM   21  O3  UNL     1     -11.550   7.343  23.547  1.00  0.00    -0.381 OA
HETATM   22  H25 UNL     1     -11.293   7.233  24.485  1.00  0.00     0.211 HD
ENDBRANCH  20  21
BRANCH  20  23
HETATM   23  C20 UNL     1     -13.556   7.761  24.740  1.00  0.00     0.185 C 
HETATM   24  O4  UNL     1     -13.524   8.439  25.775  1.00  0.00    -0.292 OA
BRANCH  23  25
HETATM   25  C21 UNL     1     -14.421   6.509  24.622  1.00  0.00     0.260 C 
BRANCH  25  26
HETATM   26  O5  UNL     1     -13.648   5.331  24.386  1.00  0.00    -0.314 OA
BRANCH  26  27
HETATM   27  C22 UNL     1     -14.251   4.430  23.561  1.00  0.00     0.259 C 
HETATM   28  O6  UNL     1     -14.832   4.709  22.520  1.00  0.00    -0.265 OA
BRANCH  27  29
HETATM   29  C23 UNL     1     -14.069   3.031  24.096  1.00  0.00     0.120 C 
BRANCH  29  30
HETATM   30  C24 UNL     1     -12.653   2.532  23.830  1.00  0.00     0.112 C 
BRANCH  30  31
HETATM   31  C25 UNL     1     -12.040   1.913  25.071  1.00  0.00     0.218 C 
HETATM   32  O7  UNL     1     -11.074   1.158  25.037  1.00  0.00    -0.274 OA
HETATM   33  N1  UNL     1     -12.693   2.264  26.230  1.00  0.00    -0.357 N 
HETATM   34  H32 UNL     1     -13.545   2.805  26.174  1.00  0.00     0.162 HD
BRANCH  33  35
HETATM   35  C26 UNL     1     -12.292   1.753  27.522  1.00  0.00     0.162 C 
BRANCH  35  36
HETATM   36  C27 UNL     1     -12.633   2.717  28.619  1.00  0.00    -0.025 A 
HETATM   37  C28 UNL     1     -13.370   3.877  28.364  1.00  0.00     0.011 A 
HETATM   38  C29 UNL     1     -13.664   4.753  29.405  1.00  0.00     0.018 A 
HETATM   39  C30 UNL     1     -13.204   4.440  30.673  1.00  0.00     0.087 A 
HETATM   40  N2  UNL     1     -12.483   3.335  30.959  1.00  0.00    -0.375 N 
HETATM   41  C31 UNL     1     -12.215   2.501  29.929  1.00  0.00     0.096 A 
ATOM     42  H2  UNL     1     -12.156   3.140  31.906  1.00  0.00     0.164 HD
ENDBRANCH  35  36
ENDBRANCH  33  35
ENDBRANCH  30  31
ENDBRANCH  29  30
ENDBRANCH  27  29
ENDBRANCH  26  27
ENDBRANCH  25  26
ENDBRANCH  23  25
ENDBRANCH  20  23
BRANCH  13  43
HETATM   43  O2  UNL     1     -11.376  12.418  24.805  1.00  0.00    -0.395 OA
HETATM   44  H14 UNL     1     -11.547  12.251  25.748  1.00  0.00     0.210 HD
ENDBRANCH  13  43
TORSDOF 11
ENDMDL
