MODEL 1
REMARK minimizedAffinity -10.425663
REMARK CNNscore 0.640763998
REMARK CNNaffinity 7.9504509
REMARK  14 active torsions:
REMARK  status: ('A' for Active; 'I' for Inactive)
REMARK    1  A    between atoms: C12_13  and  O2_14 
REMARK    2  A    between atoms: C19_21  and  O3_22 
REMARK    3  A    between atoms: C19_21  and  C20_23 
REMARK    4  A    between atoms: C20_23  and  C21_25 
REMARK    5  A    between atoms: C21_25  and  O5_26 
REMARK    6  A    between atoms: O5_26  and  C22_27 
REMARK    7  A    between atoms: C22_27  and  C23_29 
REMARK    8  A    between atoms: C23_29  and  C24_30 
REMARK    9  A    between atoms: C24_30  and  C25_31 
REMARK       I    between atoms: C25_31  and  N1_33 
REMARK   10  A    between atoms: N1_33  and  C26_34 
REMARK   11  A    between atoms: C26_34  and  C27_35 
REMARK   12  A    between atoms: C26_34  and  C36_45 
REMARK   13  A    between atoms: C27_35  and  C28_36 
REMARK   14  A    between atoms: C36_45  and  O9_47 
ROOT
HETATM    1  C20 UNL     1      -0.154   6.404  14.017  1.00  0.00     0.185 C 
HETATM    2  O4  UNL     1       0.676   5.487  14.029  1.00  0.00    -0.292 OA
ENDROOT
BRANCH   1   3
HETATM    3  C19 UNL     1      -1.445   6.346  13.145  1.00  0.00     0.128 C 
HETATM    4  C14 UNL     1      -2.776   6.120  13.949  1.00  0.00     0.001 C 
HETATM    5  C13 UNL     1      -3.479   7.377  14.514  1.00  0.00     0.045 C 
HETATM    6  C15 UNL     1      -2.525   5.083  15.078  1.00  0.00     0.019 C 
HETATM    7  C16 UNL     1      -3.689   5.580  12.822  1.00  0.00     0.002 C 
HETATM    8  C12 UNL     1      -4.926   7.119  14.989  1.00  0.00     0.124 C 
HETATM    9  C11 UNL     1      -5.807   6.395  13.929  1.00  0.00     0.031 C 
HETATM   10  C2  UNL     1      -7.290   6.075  14.381  1.00  0.00    -0.014 C 
HETATM   11  C10 UNL     1      -5.089   5.161  13.297  1.00  0.00    -0.002 C 
HETATM   12  C1  UNL     1      -7.380   5.118  15.591  1.00  0.00     0.020 C 
HETATM   13  C3  UNL     1      -7.987   7.420  14.745  1.00  0.00     0.022 C 
HETATM   14  C7  UNL     1      -8.037   5.402  13.219  1.00  0.00    -0.068 C 
HETATM   15  C4  UNL     1      -9.502   7.324  14.827  1.00  0.00     0.084 C 
HETATM   16  C5  UNL     1     -10.060   6.780  13.539  1.00  0.00     0.149 C 
HETATM   17  O1  UNL     1     -11.167   7.101  13.114  1.00  0.00    -0.293 OA
HETATM   18  C6  UNL     1      -9.271   5.757  12.816  1.00  0.00     0.053 C 
HETATM   19  C8  UNL     1      -7.331   4.248  12.547  1.00  0.00     0.035 C 
HETATM   20  C9  UNL     1      -5.917   4.615  12.122  1.00  0.00     0.010 C 
HETATM   21  C17 UNL     1      -2.828   4.531  12.131  1.00  0.00     0.009 C 
HETATM   22  C18 UNL     1      -1.402   5.105  12.195  1.00  0.00     0.047 C 
BRANCH   8  23
HETATM   23  O2  UNL     1      -4.894   6.404  16.214  1.00  0.00    -0.395 OA
HETATM   24  H16 UNL     1      -4.456   6.963  16.879  1.00  0.00     0.210 HD
ENDBRANCH   8  23
BRANCH   3  25
HETATM   25  O3  UNL     1      -1.547   7.471  12.272  1.00  0.00    -0.381 OA
HETATM   26  H27 UNL     1      -1.717   8.280  12.794  1.00  0.00     0.211 HD
ENDBRANCH   3  25
ENDBRANCH   1   3
BRANCH   1  27
HETATM   27  C21 UNL     1       0.066   7.615  14.913  1.00  0.00     0.260 C 
BRANCH  27  28
HETATM   28  O5  UNL     1       0.927   7.341  16.015  1.00  0.00    -0.314 OA
BRANCH  28  29
HETATM   29  C22 UNL     1       2.047   8.096  16.097  1.00  0.00     0.259 C 
HETATM   30  O6  UNL     1       2.286   8.856  17.031  1.00  0.00    -0.265 OA
BRANCH  29  31
HETATM   31  C23 UNL     1       2.974   7.929  14.916  1.00  0.00     0.120 C 
BRANCH  31  32
HETATM   32  C24 UNL     1       4.451   8.144  15.226  1.00  0.00     0.112 C 
BRANCH  32  33
HETATM   33  C25 UNL     1       5.347   7.597  14.133  1.00  0.00     0.218 C 
HETATM   34  O7  UNL     1       6.536   7.349  14.291  1.00  0.00    -0.274 OA
HETATM   35  N1  UNL     1       4.691   7.417  12.940  1.00  0.00    -0.346 N 
HETATM   36  H34 UNL     1       3.685   7.546  12.885  1.00  0.00     0.163 HD
BRANCH  35  37
HETATM   37  C26 UNL     1       5.359   6.841  11.766  1.00  0.00     0.186 C 
BRANCH  37  38
HETATM   38  C27 UNL     1       4.355   6.117  10.860  1.00  0.00     0.077 C 
BRANCH  38  39
HETATM   39  C28 UNL     1       3.089   6.885  10.643  1.00  0.00    -0.028 A 
HETATM   40  C29 UNL     1       2.323   7.502  11.613  1.00  0.00     0.096 A 
HETATM   41  N2  UNL     1       1.247   8.089  11.001  1.00  0.00    -0.365 N 
HETATM   42  C30 UNL     1       1.293   7.869   9.644  1.00  0.00     0.042 A 
HETATM   43  H39 UNL     1       0.521   8.610  11.471  1.00  0.00     0.165 HD
HETATM   44  C31 UNL     1       0.414   8.279   8.633  1.00  0.00     0.030 A 
HETATM   45  C35 UNL     1       2.436   7.112   9.388  1.00  0.00    -0.002 A 
HETATM   46  C32 UNL     1       0.716   7.902   7.321  1.00  0.00     0.002 A 
HETATM   47  C33 UNL     1       1.849   7.145   7.034  1.00  0.00     0.001 A 
HETATM   48  C34 UNL     1       2.717   6.744   8.057  1.00  0.00     0.014 A 
ENDBRANCH  38  39
ENDBRANCH  37  38
BRANCH  37  49
HETATM   49  C36 UNL     1       5.997   8.004  11.017  1.00  0.00     0.163 C 
HETATM   50  O8  UNL     1       5.629   9.170  11.070  1.00  0.00    -0.648 OA
BRANCH  49  51
HETATM   51  O9  UNL     1       7.060   7.657  10.268  1.00  0.00    -0.775 OA
HETATM   52  H44 UNL     1       7.355   8.490   9.850  1.00  0.00     0.167 HD
ENDBRANCH  49  51
ENDBRANCH  37  49
ENDBRANCH  35  37
ENDBRANCH  32  33
ENDBRANCH  31  32
ENDBRANCH  29  31
ENDBRANCH  28  29
ENDBRANCH  27  28
ENDBRANCH   1  27
TORSDOF 14
ENDMDL
