MODEL 1
REMARK minimizedAffinity -9.90667439
REMARK CNNscore 0.205097139
REMARK CNNaffinity 6.79016829
REMARK  11 active torsions:
REMARK  status: ('A' for Active; 'I' for Inactive)
REMARK       I    between atoms: N1_1  and  C1_2 
REMARK       I    between atoms: C1_2  and  N2_3 
REMARK    1  A    between atoms: N3_4  and  C2_6 
REMARK    2  A    between atoms: C2_6  and  C3_7 
REMARK    3  A    between atoms: C3_7  and  C4_8 
REMARK    4  A    between atoms: C4_8  and  C5_9 
REMARK    5  A    between atoms: C4_8  and  C6_11 
REMARK    6  A    between atoms: C5_9  and  O1_10 
REMARK    7  A    between atoms: C6_11  and  C7_12 
REMARK    8  A    between atoms: C21_27  and  S1_28 
REMARK    9  A    between atoms: C30_40  and  C31_41 
REMARK   10  A    between atoms: C31_41  and  O6_42 
REMARK   11  A    between atoms: C37_48  and  O7_49 
ROOT
HETATM    1  C2  UNL     1      -8.139  46.321 -32.305  1.00  0.00     0.171 C 
HETATM    2  O2  UNL     1      -7.306  47.256 -31.531  1.00  0.00    -0.316 OA
HETATM    3  C13 UNL     1      -7.503  47.304 -30.180  1.00  0.00     0.072 C 
HETATM    4  C14 UNL     1      -6.998  46.315 -29.345  1.00  0.00     0.037 C 
HETATM    5  C15 UNL     1      -7.406  46.281 -28.013  1.00  0.00     0.010 C 
HETATM    6  C16 UNL     1      -8.307  47.234 -27.517  1.00  0.00    -0.058 C 
HETATM    7  C17 UNL     1      -8.691  48.302 -28.337  1.00  0.00     0.010 C 
HETATM    8  C18 UNL     1      -8.268  48.350 -29.663  1.00  0.00     0.037 C 
HETATM    9  C19 UNL     1      -8.930  47.052 -26.154  1.00  0.00     0.040 C 
HETATM   10  C20 UNL     1     -10.343  46.436 -26.203  1.00  0.00     0.028 C 
HETATM   11  C21 UNL     1     -10.480  45.021 -26.820  1.00  0.00     0.140 C 
HETATM   12  C22 UNL     1     -11.964  44.606 -27.134  1.00  0.00     0.053 C 
HETATM   13  C23 UNL     1     -12.974  45.155 -26.136  1.00  0.00    -0.013 C 
HETATM   14  C24 UNL     1     -13.981  45.964 -26.511  1.00  0.00    -0.050 C 
HETATM   15  C25 UNL     1     -13.976  46.559 -27.877  1.00  0.00     0.043 C 
HETATM   16  C26 UNL     1     -13.885  45.384 -28.825  1.00  0.00     0.016 C 
HETATM   17  C27 UNL     1     -15.148  44.477 -28.698  1.00  0.00     0.039 C 
HETATM   18  C28 UNL     1     -15.684  43.999 -27.307  1.00  0.00     0.123 C 
HETATM   19  C29 UNL     1     -16.834  42.999 -27.632  1.00  0.00     0.039 C 
HETATM   20  C30 UNL     1     -17.663  42.422 -26.460  1.00  0.00     0.023 C 
HETATM   21  C32 UNL     1     -16.800  41.663 -25.432  1.00  0.00     0.101 C 
HETATM   22  C33 UNL     1     -16.200  42.632 -24.516  1.00  0.00    -0.101 C 
HETATM   23  C34 UNL     1     -15.801  43.613 -23.955  1.00  0.00    -0.066 C 
HETATM   24  C35 UNL     1     -15.438  44.894 -23.450  1.00  0.00     0.029 A 
HETATM   25  C36 UNL     1     -15.280  45.019 -22.062  1.00  0.00     0.057 A 
HETATM   26  C37 UNL     1     -14.948  46.249 -21.508  1.00  0.00     0.067 A 
HETATM   27  C38 UNL     1     -14.775  47.361 -22.312  1.00  0.00     0.037 A 
HETATM   28  C39 UNL     1     -14.926  47.237 -23.694  1.00  0.00     0.014 A 
HETATM   29  C40 UNL     1     -15.263  46.002 -24.298  1.00  0.00    -0.006 A 
HETATM   30  C41 UNL     1     -15.324  45.980 -25.832  1.00  0.00     0.185 C 
HETATM   31  O8  UNL     1     -16.236  45.056 -26.485  1.00  0.00    -0.371 OA
HETATM   32  C42 UNL     1     -12.499  44.654 -28.643  1.00  0.00     0.104 A 
HETATM   33  C43 UNL     1     -11.464  45.061 -29.699  1.00  0.00     0.082 A 
HETATM   34  C44 UNL     1     -10.454  44.148 -30.043  1.00  0.00     0.010 A 
HETATM   35  C45 UNL     1      -9.414  44.505 -30.912  1.00  0.00     0.011 A 
HETATM   36  C46 UNL     1      -9.365  45.779 -31.501  1.00  0.00    -0.003 A 
HETATM   37  C47 UNL     1     -10.442  46.645 -31.243  1.00  0.00     0.011 A 
HETATM   38  C48 UNL     1     -11.451  46.307 -30.334  1.00  0.00     0.010 A 
HETATM   39 NA1  UNL     1     -10.718  45.546 -29.113  1.00  0.00    -0.398 Na
ATOM     40  HA1 UNL     1      -9.844  46.041 -28.935  1.00  0.00     0.155 HD
ENDROOT
BRANCH   1  41
HETATM   41  N3  UNL     1      -8.696  46.866 -33.571  1.00  0.00    -0.336 N 
HETATM   42  C1  UNL     1      -7.978  47.485 -34.422  1.00  0.00     0.124 C 
HETATM   43  N1  UNL     1      -6.653  47.742 -34.444  1.00  0.00    -0.279 NA
HETATM   44  N2  UNL     1      -8.548  47.984 -35.541  1.00  0.00    -0.279 NA
HETATM   45  H1  UNL     1      -6.207  47.515 -33.554  1.00  0.00     0.126 HD
HETATM   46  H2  UNL     1      -6.456  48.704 -34.697  1.00  0.00     0.126 HD
HETATM   47  H3  UNL     1      -9.494  47.628 -35.632  1.00  0.00     0.126 HD
HETATM   48  H4  UNL     1      -8.001  47.781 -36.366  1.00  0.00     0.126 HD
ATOM     49  H3  UNL     1      -9.689  46.740 -33.765  1.00  0.00     0.165 HD
ENDBRANCH   1  41
BRANCH   1  50
HETATM   50  C3  UNL     1      -7.198  45.150 -32.761  1.00  0.00     0.074 C 
BRANCH  50  51
HETATM   51  C4  UNL     1      -6.101  44.676 -31.765  1.00  0.00     0.018 C 
BRANCH  51  52
HETATM   52  C5  UNL     1      -4.749  45.301 -32.171  1.00  0.00     0.169 C 
BRANCH  52  53
HETATM   53  O1  UNL     1      -4.794  45.892 -33.465  1.00  0.00    -0.400 OA
HETATM   54  H10 UNL     1      -5.366  46.677 -33.414  1.00  0.00     0.209 HD
ENDBRANCH  52  53
ENDBRANCH  51  52
BRANCH  51  55
HETATM   55  C6  UNL     1      -6.001  43.137 -31.690  1.00  0.00     0.045 C 
BRANCH  55  56
HETATM   56  C7  UNL     1      -5.306  42.520 -32.884  1.00  0.00    -0.058 A 
HETATM   57  C8  UNL     1      -6.049  42.072 -33.985  1.00  0.00     0.007 A 
HETATM   58  C9  UNL     1      -5.409  41.491 -35.081  1.00  0.00     0.001 A 
HETATM   59  C10 UNL     1      -4.022  41.353 -35.087  1.00  0.00     0.000 A 
HETATM   60  C11 UNL     1      -3.275  41.797 -33.997  1.00  0.00     0.001 A 
HETATM   61  C12 UNL     1      -3.912  42.377 -32.900  1.00  0.00     0.007 A 
ENDBRANCH  55  56
ENDBRANCH  51  55
ENDBRANCH  50  51
ENDBRANCH   1  50
BRANCH  11  62
HETATM   62  S1  UNL     1      -9.718  43.732 -25.780  1.00  0.00     0.106 S 
HETATM   63  O3  UNL     1      -9.844  44.270 -24.425  1.00  0.00    -0.595 OA
HETATM   64  O4  UNL     1      -8.347  43.633 -26.275  1.00  0.00    -0.595 OA
HETATM   65  O5  UNL     1     -10.526  42.535 -25.999  1.00  0.00    -0.595 OA
ENDBRANCH  11  62
BRANCH  20  66
HETATM   66  C31 UNL     1     -18.764  41.497 -27.005  1.00  0.00     0.169 C 
BRANCH  66  67
HETATM   67  O6  UNL     1     -19.939  41.579 -26.213  1.00  0.00    -0.400 OA
HETATM   68  H40 UNL     1     -20.570  40.929 -26.566  1.00  0.00     0.209 HD
ENDBRANCH  66  67
ENDBRANCH  20  66
BRANCH  26  69
HETATM   69  O7  UNL     1     -14.781  46.400 -20.163  1.00  0.00    -0.361 OA
HETATM   70  H44 UNL     1     -14.746  45.511 -19.767  1.00  0.00     0.217 HD
ENDBRANCH  26  69
TORSDOF 11
ENDMDL
