MODEL 1
REMARK minimizedAffinity -7.5994854
REMARK CNNscore 0.283004194
REMARK CNNaffinity 5.81276464
REMARK  8 active torsions:
REMARK  status: ('A' for Active; 'I' for Inactive)
REMARK    1  A    between atoms: C3_3  and  O1_4 
REMARK    2  A    between atoms: N1_14  and  O2_16 
REMARK    3  A    between atoms: O2_16  and  C13_17 
REMARK    4  A    between atoms: C13_17  and  C14_18 
REMARK       I    between atoms: C14_18  and  N2_20 
REMARK    5  A    between atoms: N2_20  and  C15_21 
REMARK    6  A    between atoms: C15_21  and  C16_22 
REMARK    7  A    between atoms: C16_22  and  O4_23 
REMARK    8  A    between atoms: C16_22  and  C17_24 
ROOT
HETATM    1  C1  UNL     1      -0.373  51.271 -21.787  1.00  0.00     0.015 C 
HETATM    2  C2  UNL     1      -1.531  50.982 -21.928  1.00  0.00    -0.078 C 
HETATM    3  C3  UNL     1      -2.963  50.658 -22.067  1.00  0.00     0.128 C 
HETATM    4  C4  UNL     1      -3.762  51.860 -22.578  1.00  0.00     0.052 C 
HETATM    5  C5  UNL     1      -5.097  51.234 -22.952  1.00  0.00     0.010 C 
HETATM    6  C6  UNL     1      -4.748  49.871 -23.590  1.00  0.00     0.002 C 
HETATM    7  C7  UNL     1      -5.787  48.744 -23.353  1.00  0.00    -0.004 C 
HETATM    8  C8  UNL     1      -7.202  49.227 -23.711  1.00  0.00     0.010 C 
HETATM    9  C9  UNL     1      -8.257  48.164 -23.456  1.00  0.00     0.035 C 
HETATM   10  C10 UNL     1      -8.198  47.691 -22.021  1.00  0.00    -0.069 C 
HETATM   11  C11 UNL     1      -9.298  47.756 -21.244  1.00  0.00     0.030 C 
HETATM   12  C12 UNL     1      -9.296  47.223 -19.854  1.00  0.00     0.032 C 
HETATM   13  N1  UNL     1     -10.214  47.421 -18.959  1.00  0.00    -0.271 N 
ATOM     14  H1  UNL     1     -10.208  46.996 -18.032  1.00  0.00     0.194 HD
HETATM   15  C23 UNL     1      -8.133  46.333 -19.479  1.00  0.00     0.060 C 
HETATM   16  C24 UNL     1      -6.843  46.943 -20.009  1.00  0.00     0.020 C 
HETATM   17  C25 UNL     1      -6.847  47.146 -21.553  1.00  0.00    -0.016 C 
HETATM   18  C26 UNL     1      -6.640  45.777 -22.243  1.00  0.00     0.020 C 
HETATM   19  C27 UNL     1      -5.712  48.183 -21.912  1.00  0.00     0.002 C 
HETATM   20  C28 UNL     1      -4.292  47.664 -21.575  1.00  0.00     0.007 C 
HETATM   21  C29 UNL     1      -3.195  48.102 -22.545  1.00  0.00     0.014 C 
HETATM   22  C30 UNL     1      -3.298  49.536 -23.102  1.00  0.00     0.003 C 
HETATM   23  C31 UNL     1      -2.357  49.618 -24.339  1.00  0.00     0.020 C 
ENDROOT
BRANCH   3  24
HETATM   24  O1  UNL     1      -3.467  50.335 -20.772  1.00  0.00    -0.377 OA
HETATM   25  H2  UNL     1      -3.109  50.993 -20.151  1.00  0.00     0.211 HD
ENDBRANCH   3  24
BRANCH  13  26
HETATM   26  O2  UNL     1     -11.215  48.291 -19.423  1.00  0.00    -0.271 OA
BRANCH  26  27
HETATM   27  C13 UNL     1     -12.492  47.690 -19.237  1.00  0.00     0.303 C 
BRANCH  27  28
HETATM   28  C14 UNL     1     -13.286  47.577 -20.537  1.00  0.00     0.243 C 
HETATM   29  O3  UNL     1     -13.910  48.524 -21.019  1.00  0.00    -0.271 OA
HETATM   30  N2  UNL     1     -13.262  46.318 -21.105  1.00  0.00    -0.356 N 
HETATM   31  H16 UNL     1     -12.854  45.572 -20.535  1.00  0.00     0.162 HD
BRANCH  30  32
HETATM   32  C15 UNL     1     -14.095  45.982 -22.247  1.00  0.00     0.159 C 
BRANCH  32  33
HETATM   33  C16 UNL     1     -15.276  46.963 -22.455  1.00  0.00     0.170 C 
BRANCH  33  34
HETATM   34  O4  UNL     1     -15.080  47.791 -23.605  1.00  0.00    -0.389 OA
HETATM   35  H20 UNL     1     -15.324  47.273 -24.398  1.00  0.00     0.210 HD
ENDBRANCH  33  34
BRANCH  33  36
HETATM   36  C17 UNL     1     -16.616  46.277 -22.559  1.00  0.00    -0.013 A 
HETATM   37  C18 UNL     1     -17.564  46.605 -23.534  1.00  0.00     0.013 A 
HETATM   38  C19 UNL     1     -18.782  45.928 -23.577  1.00  0.00     0.025 A 
HETATM   39  C20 UNL     1     -19.038  44.941 -22.630  1.00  0.00     0.005 A 
HETATM   40  C21 UNL     1     -20.336  44.189 -22.661  1.00  0.00     0.068 C 
HETATM   41  N3  UNL     1     -18.150  44.619 -21.660  1.00  0.00    -0.369 N 
HETATM   42  C22 UNL     1     -16.976  45.294 -21.640  1.00  0.00     0.097 A 
ATOM     43  H3  UNL     1     -18.356  43.895 -20.972  1.00  0.00     0.165 HD
ENDBRANCH  33  36
ENDBRANCH  32  33
ENDBRANCH  30  32
ENDBRANCH  27  28
ENDBRANCH  26  27
ENDBRANCH  13  26
TORSDOF 8
ENDMDL
