MODEL 1
REMARK minimizedAffinity -8.10835361
REMARK CNNscore 0.51299125
REMARK CNNaffinity 6.50908089
REMARK  13 active torsions:
REMARK  status: ('A' for Active; 'I' for Inactive)
REMARK    1  A    between atoms: C3_3  and  O1_4 
REMARK    2  A    between atoms: N1_14  and  O2_16 
REMARK    3  A    between atoms: O2_16  and  C13_17 
REMARK    4  A    between atoms: C13_17  and  C14_18 
REMARK       I    between atoms: C14_18  and  N2_20 
REMARK    5  A    between atoms: N2_20  and  C15_21 
REMARK    6  A    between atoms: C15_21  and  C16_22 
REMARK    7  A    between atoms: C15_21  and  C21_33 
REMARK       I    between atoms: C16_22  and  N3_24 
REMARK    8  A    between atoms: N3_24  and  C17_25 
REMARK    9  A    between atoms: C17_25  and  C18_26 
REMARK   10  A    between atoms: C17_25  and  C20_30 
REMARK   11  A    between atoms: C18_26  and  C19_27 
REMARK   12  A    between atoms: C19_27  and  O6_29 
REMARK   13  A    between atoms: C20_30  and  O8_32 
ROOT
HETATM    1  C1  UNL     1      -0.042  51.194 -26.212  1.00  0.00     0.015 C 
HETATM    2  C2  UNL     1      -1.196  51.291 -25.883  1.00  0.00    -0.078 C 
HETATM    3  C3  UNL     1      -2.629  51.408 -25.536  1.00  0.00     0.128 C 
HETATM    4  C4  UNL     1      -3.399  50.188 -26.060  1.00  0.00     0.052 C 
HETATM    5  C5  UNL     1      -3.322  49.141 -24.939  1.00  0.00     0.010 C 
HETATM    6  C6  UNL     1      -2.739  49.854 -23.697  1.00  0.00     0.002 C 
HETATM    7  C7  UNL     1      -3.236  49.394 -22.302  1.00  0.00    -0.004 C 
HETATM    8  C8  UNL     1      -3.357  47.860 -22.201  1.00  0.00     0.010 C 
HETATM    9  C9  UNL     1      -4.787  47.345 -22.263  1.00  0.00     0.035 C 
HETATM   10  C10 UNL     1      -5.706  47.992 -21.260  1.00  0.00    -0.069 C 
HETATM   11  C11 UNL     1      -6.836  47.351 -20.910  1.00  0.00     0.030 C 
HETATM   12  C12 UNL     1      -7.822  47.936 -19.960  1.00  0.00     0.032 C 
HETATM   13  N1  UNL     1      -8.865  47.216 -19.657  1.00  0.00    -0.271 N 
ATOM     14  H1  UNL     1      -9.034  46.274 -20.009  1.00  0.00     0.194 HD
HETATM   15  C24 UNL     1      -7.542  49.320 -19.398  1.00  0.00     0.060 C 
HETATM   16  C25 UNL     1      -6.632  50.113 -20.332  1.00  0.00     0.020 C 
HETATM   17  C26 UNL     1      -5.323  49.362 -20.713  1.00  0.00    -0.016 C 
HETATM   18  C27 UNL     1      -4.487  49.174 -19.416  1.00  0.00     0.020 C 
HETATM   19  C28 UNL     1      -4.467  50.185 -21.751  1.00  0.00     0.002 C 
HETATM   20  C29 UNL     1      -5.250  50.818 -22.909  1.00  0.00     0.007 C 
HETATM   21  C30 UNL     1      -4.395  51.818 -23.698  1.00  0.00     0.014 C 
HETATM   22  C31 UNL     1      -2.932  51.359 -24.003  1.00  0.00     0.003 C 
HETATM   23  C32 UNL     1      -1.967  52.240 -23.181  1.00  0.00     0.020 C 
ENDROOT
BRANCH   3  24
HETATM   24  O1  UNL     1      -3.125  52.602 -26.131  1.00  0.00    -0.377 OA
HETATM   25  H2  UNL     1      -2.927  52.550 -27.083  1.00  0.00     0.211 HD
ENDBRANCH   3  24
BRANCH  13  26
HETATM   26  O2  UNL     1      -9.725  47.897 -18.786  1.00  0.00    -0.271 OA
BRANCH  26  27
HETATM   27  C13 UNL     1     -10.910  48.279 -19.491  1.00  0.00     0.303 C 
BRANCH  27  28
HETATM   28  C14 UNL     1     -11.854  47.089 -19.552  1.00  0.00     0.244 C 
HETATM   29  O3  UNL     1     -11.478  45.937 -19.348  1.00  0.00    -0.271 OA
HETATM   30  N2  UNL     1     -13.162  47.435 -19.820  1.00  0.00    -0.346 N 
HETATM   31  H16 UNL     1     -13.336  48.413 -20.023  1.00  0.00     0.163 HD
BRANCH  30  32
HETATM   32  C15 UNL     1     -14.198  46.434 -20.107  1.00  0.00     0.180 C 
BRANCH  32  33
HETATM   33  C16 UNL     1     -14.877  46.735 -21.469  1.00  0.00     0.241 C 
HETATM   34  O4  UNL     1     -14.822  47.840 -22.002  1.00  0.00    -0.271 OA
HETATM   35  N3  UNL     1     -15.421  45.628 -22.098  1.00  0.00    -0.344 N 
HETATM   36  H18 UNL     1     -15.771  44.932 -21.447  1.00  0.00     0.163 HD
BRANCH  35  37
HETATM   37  C17 UNL     1     -16.202  45.779 -23.334  1.00  0.00     0.192 C 
BRANCH  37  38
HETATM   38  C18 UNL     1     -17.316  46.808 -23.145  1.00  0.00     0.146 C 
BRANCH  38  39
HETATM   39  C19 UNL     1     -18.399  46.617 -24.167  1.00  0.00     0.141 C 
HETATM   40  O5  UNL     1     -18.941  47.475 -24.842  1.00  0.00    -0.650 OA
BRANCH  39  41
HETATM   41  O6  UNL     1     -18.715  45.316 -24.340  1.00  0.00    -0.776 OA
HETATM   42  H22 UNL     1     -19.447  45.333 -24.989  1.00  0.00     0.167 HD
ENDBRANCH  39  41
ENDBRANCH  38  39
ENDBRANCH  37  38
BRANCH  37  43
HETATM   43  C20 UNL     1     -15.295  46.240 -24.478  1.00  0.00     0.164 C 
HETATM   44  O7  UNL     1     -14.643  45.519 -25.216  1.00  0.00    -0.648 OA
BRANCH  43  45
HETATM   45  O8  UNL     1     -15.326  47.576 -24.693  1.00  0.00    -0.775 OA
HETATM   46  H23 UNL     1     -14.665  47.721 -25.402  1.00  0.00     0.167 HD
ENDBRANCH  43  45
ENDBRANCH  37  43
ENDBRANCH  35  37
ENDBRANCH  32  33
BRANCH  32  47
HETATM   47  C21 UNL     1     -15.215  46.365 -18.944  1.00  0.00     0.009 C 
HETATM   48  C22 UNL     1     -14.677  45.675 -17.684  1.00  0.00     0.012 C 
HETATM   49  C23 UNL     1     -15.749  47.753 -18.582  1.00  0.00     0.012 C 
ENDBRANCH  32  47
ENDBRANCH  30  32
ENDBRANCH  27  28
ENDBRANCH  26  27
ENDBRANCH  13  26
TORSDOF 13
ENDMDL
