MODEL 1
REMARK minimizedAffinity -8.14377022
REMARK CNNscore 0.262952328
REMARK CNNaffinity 6.42774391
REMARK  19 active torsions:
REMARK  status: ('A' for Active; 'I' for Inactive)
REMARK    1  A    between atoms: O1_2  and  C2_3 
REMARK    2  A    between atoms: C2_3  and  C3_4 
REMARK    3  A    between atoms: C2_3  and  C28_36 
REMARK    4  A    between atoms: C3_4  and  C4_5 
REMARK    5  A    between atoms: C4_5  and  C6_7 
REMARK    6  A    between atoms: C6_7  and  O2_8 
REMARK    7  A    between atoms: C6_7  and  C7_9 
REMARK    8  A    between atoms: C8_10  and  C9_11 
REMARK    9  A    between atoms: C10_12  and  C11_13 
REMARK   10  A    between atoms: C11_13  and  N1_14 
REMARK       I    between atoms: N1_14  and  C12_15 
REMARK   11  A    between atoms: C12_15  and  C13_17 
REMARK   12  A    between atoms: C13_17  and  C16_20 
REMARK   13  A    between atoms: C16_20  and  O4_21 
REMARK   14  A    between atoms: C16_20  and  C17_22 
REMARK   15  A    between atoms: C19_24  and  C20_25 
REMARK   16  A    between atoms: C21_26  and  C22_27 
REMARK   17  A    between atoms: C23_28  and  C24_29 
REMARK   18  A    between atoms: C26_31  and  N2_33 
REMARK   19  A    between atoms: C28_36  and  O7_37 
ROOT
HETATM    1  C9  UNL     1      -3.830  48.431 -27.272  1.00  0.00    -0.003 C 
HETATM    2  C10 UNL     1      -4.677  48.429 -28.311  1.00  0.00    -0.007 C 
ENDROOT
BRANCH   1   3
HETATM    3  C8  UNL     1      -2.874  49.484 -27.027  1.00  0.00    -0.002 C 
HETATM    4  C7  UNL     1      -3.255  50.706 -26.633  1.00  0.00     0.005 C 
BRANCH   4   5
HETATM    5  C6  UNL     1      -2.292  51.805 -26.286  1.00  0.00     0.144 C 
BRANCH   5   6
HETATM    6  C4  UNL     1      -1.453  51.475 -25.027  1.00  0.00     0.016 C 
HETATM    7  C5  UNL     1       0.022  51.893 -25.143  1.00  0.00     0.013 C 
BRANCH   6   8
HETATM    8  C3  UNL     1      -2.110  51.951 -23.706  1.00  0.00     0.042 C 
BRANCH   8   9
HETATM    9  C2  UNL     1      -1.874  51.118 -22.410  1.00  0.00     0.159 C 
BRANCH   9  10
HETATM   10  O1  UNL     1      -1.278  51.988 -21.435  1.00  0.00    -0.388 OA
HETATM   11  C1  UNL     1       0.138  51.911 -21.315  1.00  0.00     0.202 C 
ENDBRANCH   9  10
BRANCH   9  12
HETATM   12  C28 UNL     1      -3.234  50.637 -21.820  1.00  0.00     0.133 C 
HETATM   13  C29 UNL     1      -4.101  49.719 -22.734  1.00  0.00     0.114 C 
HETATM   14  C30 UNL     1      -3.370  48.587 -23.445  1.00  0.00     0.023 C 
HETATM   15  C31 UNL     1      -5.101  49.141 -21.750  1.00  0.00     0.227 C 
HETATM   16  O8  UNL     1      -6.181  48.661 -22.044  1.00  0.00    -0.273 OA
HETATM   17  N3  UNL     1      -4.535  49.198 -20.488  1.00  0.00    -0.332 N 
HETATM   18  C32 UNL     1      -5.307  48.997 -19.286  1.00  0.00     0.154 C 
HETATM   19  C33 UNL     1      -3.178  49.841 -20.496  1.00  0.00     0.183 C 
HETATM   20  C34 UNL     1      -2.720  50.660 -19.245  1.00  0.00     0.294 C 
HETATM   21  C35 UNL     1      -2.104  48.832 -19.930  1.00  0.00     0.169 C 
HETATM   22  O9  UNL     1      -3.042  51.668 -18.657  1.00  0.00    -0.262 OA
HETATM   23  O10 UNL     1      -1.675  49.831 -18.963  1.00  0.00    -0.311 OA
HETATM   24  C36 UNL     1      -0.917  48.232 -20.656  1.00  0.00     0.043 C 
BRANCH  12  25
HETATM   25  O7  UNL     1      -4.059  51.824 -21.631  1.00  0.00    -0.383 OA
HETATM   26  H42 UNL     1      -3.693  52.346 -20.881  1.00  0.00     0.210 HD
ENDBRANCH  12  25
ENDBRANCH   9  12
ENDBRANCH   8   9
ENDBRANCH   6   8
ENDBRANCH   5   6
BRANCH   5  27
HETATM   27  O2  UNL     1      -3.073  52.977 -26.063  1.00  0.00    -0.391 OA
HETATM   28  H12 UNL     1      -3.648  52.819 -25.297  1.00  0.00     0.210 HD
ENDBRANCH   5  27
ENDBRANCH   4   5
ENDBRANCH   1   3
BRANCH   2  29
HETATM   29  C11 UNL     1      -5.684  47.373 -28.669  1.00  0.00     0.149 C 
BRANCH  29  30
HETATM   30  N1  UNL     1      -6.942  47.948 -29.071  1.00  0.00    -0.357 N 
HETATM   31  C12 UNL     1      -7.780  47.303 -29.949  1.00  0.00     0.228 C 
HETATM   32  O3  UNL     1      -7.486  46.206 -30.417  1.00  0.00    -0.273 OA
HETATM   33  H19 UNL     1      -7.091  48.931 -28.888  1.00  0.00     0.162 HD
BRANCH  31  34
HETATM   34  C13 UNL     1      -9.147  47.970 -30.199  1.00  0.00     0.063 C 
HETATM   35  C14 UNL     1      -9.920  47.294 -31.348  1.00  0.00     0.028 C 
HETATM   36  C15 UNL     1      -8.842  49.435 -30.595  1.00  0.00     0.028 C 
BRANCH  34  37
HETATM   37  C16 UNL     1     -10.020  47.980 -28.899  1.00  0.00     0.164 C 
BRANCH  37  38
HETATM   38  O4  UNL     1      -9.539  48.911 -27.925  1.00  0.00    -0.390 OA
HETATM   39  H27 UNL     1      -8.593  48.702 -27.779  1.00  0.00     0.210 HD
ENDBRANCH  37  38
BRANCH  37  40
HETATM   40  C17 UNL     1     -10.292  46.639 -28.215  1.00  0.00    -0.054 C 
HETATM   41  C18 UNL     1      -9.218  46.125 -27.283  1.00  0.00     0.046 C 
HETATM   42  C19 UNL     1     -11.414  45.897 -28.366  1.00  0.00     0.005 C 
BRANCH  42  43
HETATM   43  C20 UNL     1     -12.566  46.195 -29.199  1.00  0.00     0.000 C 
HETATM   44  C21 UNL     1     -13.861  46.185 -28.835  1.00  0.00     0.000 C 
BRANCH  44  45
HETATM   45  C22 UNL     1     -14.416  45.870 -27.536  1.00  0.00     0.001 C 
HETATM   46  C23 UNL     1     -15.682  45.453 -27.378  1.00  0.00     0.009 C 
BRANCH  46  47
HETATM   47  C24 UNL     1     -16.330  45.114 -26.103  1.00  0.00    -0.034 C 
HETATM   48  C25 UNL     1     -16.470  46.261 -25.115  1.00  0.00     0.050 C 
HETATM   49  C26 UNL     1     -16.700  43.835 -25.847  1.00  0.00     0.082 C 
HETATM   50  C27 UNL     1     -16.628  42.603 -26.686  1.00  0.00     0.075 C 
BRANCH  49  51
HETATM   51  N2  UNL     1     -17.331  43.561 -24.575  1.00  0.00    -0.120 N 
HETATM   52  O5  UNL     1     -16.647  43.726 -23.555  1.00  0.00    -0.532 OA
HETATM   53  O6  UNL     1     -18.515  43.205 -24.607  1.00  0.00    -0.532 OA
ENDBRANCH  49  51
ENDBRANCH  46  47
ENDBRANCH  44  45
ENDBRANCH  42  43
ENDBRANCH  37  40
ENDBRANCH  34  37
ENDBRANCH  31  34
ENDBRANCH  29  30
ENDBRANCH   2  29
TORSDOF 19
ENDMDL
