MODEL 1
REMARK minimizedAffinity -8.55269146
REMARK  12 active torsions:
REMARK  status: ('A' for Active; 'I' for Inactive)
REMARK    1  A    between atoms: C2_2  and  C23_27 
REMARK    2  A    between atoms: C3_3  and  C4_4 
REMARK    3  A    between atoms: C4_4  and  C5_5 
REMARK    4  A    between atoms: C13_13  and  C14_14 
REMARK    5  A    between atoms: C14_14  and  C16_16 
REMARK    6  A    between atoms: C17_17  and  C18_18 
REMARK    7  A    between atoms: C18_18  and  O1_19 
REMARK    8  A    between atoms: C18_18  and  C19_20 
REMARK    9  A    between atoms: C20_21  and  C21_23 
REMARK   10  A    between atoms: C21_23  and  C22_24 
REMARK   11  A    between atoms: C22_24  and  O2_25 
REMARK   12  A    between atoms: C23_27  and  O4_29 
ROOT
HETATM    1  C5  UNL     1      -0.221   7.112  11.681  1.00  0.00     0.225 C 
HETATM    2  C6  UNL     1       0.903   7.064  12.725  1.00  0.00     0.036 C 
HETATM    3  C7  UNL     1       0.336   7.146  14.135  1.00  0.00     0.005 C 
HETATM    4  C8  UNL     1      -0.738   6.080  14.339  1.00  0.00     0.042 C 
HETATM    5  C9  UNL     1      -1.850   6.099  13.243  1.00  0.00     0.162 C 
HETATM    6  C10 UNL     1      -2.778   7.316  13.418  1.00  0.00     0.042 C 
HETATM    7  C11 UNL     1      -3.749   6.932  14.531  1.00  0.00     0.003 C 
HETATM    8  C12 UNL     1      -3.735   5.406  14.627  1.00  0.00     0.008 C 
HETATM    9  C13 UNL     1      -2.818   4.892  13.496  1.00  0.00     0.031 C 
HETATM   10  N1  UNL     1      -1.206   6.046  11.925  1.00  0.00     0.098 N 
HETATM   11  H35 UNL     1      -1.908   6.069  11.189  1.00  0.00     0.317 HD
ENDROOT
BRANCH   9  12
HETATM   12  C14 UNL     1      -3.617   4.307  12.284  1.00  0.00     0.010 C 
HETATM   13  C15 UNL     1      -3.020   2.949  11.866  1.00  0.00     0.015 C 
BRANCH  12  14
HETATM   14  C16 UNL     1      -5.124   4.271  12.456  1.00  0.00    -0.023 C 
HETATM   15  C17 UNL     1      -5.937   3.212  12.282  1.00  0.00     0.005 C 
BRANCH  15  16
HETATM   16  C18 UNL     1      -7.429   3.246  12.441  1.00  0.00     0.165 C 
BRANCH  16  17
HETATM   17  O1  UNL     1      -7.813   1.957  12.877  1.00  0.00    -0.388 OA
HETATM   18  H28 UNL     1      -8.452   2.057  13.600  1.00  0.00     0.210 HD
ENDBRANCH  16  17
BRANCH  16  19
HETATM   19  C19 UNL     1      -7.838   4.381  13.348  1.00  0.00     0.028 C 
HETATM   20  C20 UNL     1      -8.479   5.543  13.130  1.00  0.00     0.013 C 
HETATM   21 CL1  UNL     1      -9.062   6.016  11.571  1.00  0.00    -0.089 Cl
BRANCH  20  22
HETATM   22  C21 UNL     1      -8.795   6.522  14.241  1.00  0.00     0.077 C 
BRANCH  22  23
HETATM   23  C22 UNL     1     -10.191   7.139  14.115  1.00  0.00     0.169 C 
BRANCH  23  24
HETATM   24  O2  UNL     1     -11.185   6.310  14.709  1.00  0.00    -0.401 OA
HETATM   25  H34 UNL     1     -11.131   5.434  14.284  1.00  0.00     0.209 HD
ENDBRANCH  23  24
ENDBRANCH  22  23
ENDBRANCH  20  22
ENDBRANCH  16  19
ENDBRANCH  15  16
ENDBRANCH  12  14
ENDBRANCH   9  12
BRANCH   1  26
HETATM   26  C4  UNL     1       0.339   7.032  10.239  1.00  0.00     0.063 C 
BRANCH  26  27
HETATM   27  C3  UNL     1       1.549   6.148  10.068  1.00  0.00    -0.011 C 
HETATM   28  C2  UNL     1       2.463   6.173   9.077  1.00  0.00     0.008 C 
HETATM   29  C1  UNL     1       2.496   7.135   7.928  1.00  0.00     0.055 C 
BRANCH  28  30
HETATM   30  C23 UNL     1       3.540   5.150   9.150  1.00  0.00     0.171 C 
HETATM   31  O3  UNL     1       3.676   4.176   8.431  1.00  0.00    -0.646 OA
BRANCH  30  32
HETATM   32  O4  UNL     1       4.420   5.403  10.134  1.00  0.00    -0.773 OA
HETATM   33  H36 UNL     1       5.053   4.659  10.058  1.00  0.00     0.167 HD
ENDBRANCH  30  32
ENDBRANCH  28  30
ENDBRANCH  26  27
ENDBRANCH   1  26
TORSDOF 12
ENDMDL
