MODEL 1
REMARK minimizedAffinity -8.10510635
REMARK  12 active torsions:
REMARK  status: ('A' for Active; 'I' for Inactive)
REMARK    1  A    between atoms: C2_2  and  C3_3 
REMARK    2  A    between atoms: C3_3  and  O1_4 
REMARK    3  A    between atoms: C3_3  and  C5_6 
REMARK    4  A    between atoms: C5_6  and  C7_8 
REMARK    5  A    between atoms: C8_10  and  C10_12 
REMARK    6  A    between atoms: C10_12  and  C11_13 
REMARK    7  A    between atoms: C11_13  and  C13_15 
REMARK    8  A    between atoms: C14_16  and  C15_17 
REMARK    9  A    between atoms: C16_18  and  C18_20 
REMARK   10  A    between atoms: C19_22  and  C20_23 
REMARK   11  A    between atoms: C20_23  and  C21_24 
REMARK   12  A    between atoms: C21_24  and  O5_26 
ROOT
HETATM    1  C13 UNL     1      -1.499   5.372  12.462  1.00  0.00    -0.022 C 
HETATM    2  C14 UNL     1      -0.725   6.451  12.261  1.00  0.00    -0.003 C 
ENDROOT
BRANCH   2   3
HETATM    3  C15 UNL     1       0.401   6.452  11.353  1.00  0.00     0.005 C 
HETATM    4  C16 UNL     1       0.649   7.329  10.356  1.00  0.00    -0.055 C 
HETATM    5  C17 UNL     1      -0.226   8.518  10.029  1.00  0.00     0.046 C 
BRANCH   4   6
HETATM    6  C18 UNL     1       1.875   7.247   9.443  1.00  0.00     0.154 C 
HETATM    7  O3  UNL     1       2.056   5.840   9.198  1.00  0.00    -0.375 OA
HETATM    8  C19 UNL     1       3.082   5.564   8.245  1.00  0.00     0.132 C 
HETATM    9  C22 UNL     1       2.598   6.001   6.858  1.00  0.00     0.033 C 
HETATM   10  C23 UNL     1       1.605   7.162   6.918  1.00  0.00     0.009 C 
HETATM   11  C24 UNL     1       1.841   8.074   8.124  1.00  0.00     0.015 C 
HETATM   12  C25 UNL     1       3.129   8.895   7.944  1.00  0.00     0.012 C 
BRANCH   8  13
HETATM   13  C20 UNL     1       3.386   4.067   8.271  1.00  0.00     0.141 C 
BRANCH  13  14
HETATM   14  C21 UNL     1       4.191   3.657   7.070  1.00  0.00     0.141 C 
HETATM   15  O4  UNL     1       3.819   3.589   5.910  1.00  0.00    -0.650 OA
BRANCH  14  16
HETATM   16  O5  UNL     1       5.439   3.270   7.407  1.00  0.00    -0.776 OA
HETATM   17  H34 UNL     1       5.849   3.024   6.551  1.00  0.00     0.167 HD
ENDBRANCH  14  16
ENDBRANCH  13  14
ENDBRANCH   8  13
ENDBRANCH   4   6
ENDBRANCH   2   3
BRANCH   1  18
HETATM   18  C11 UNL     1      -2.686   5.310  13.403  1.00  0.00     0.007 C 
HETATM   19  C12 UNL     1      -2.343   5.945  14.758  1.00  0.00     0.014 C 
BRANCH  18  20
HETATM   20  C10 UNL     1      -3.960   5.953  12.814  1.00  0.00     0.048 C 
BRANCH  20  21
HETATM   21  C8  UNL     1      -5.243   5.227  13.167  1.00  0.00     0.085 A 
HETATM   22  C7  UNL     1      -6.486   6.087  13.431  1.00  0.00     0.163 A 
HETATM   23  O2  UNL     1      -5.718   5.502  14.492  1.00  0.00    -0.369 OA
HETATM   24  C9  UNL     1      -5.348   3.782  12.783  1.00  0.00     0.049 C 
BRANCH  22  25
HETATM   25  C5  UNL     1      -7.911   5.593  13.342  1.00  0.00     0.042 C 
HETATM   26  C6  UNL     1      -8.385   5.615  11.886  1.00  0.00     0.015 C 
BRANCH  25  27
HETATM   27  C3  UNL     1      -8.879   6.385  14.275  1.00  0.00     0.126 C 
BRANCH  27  28
HETATM   28  C2  UNL     1     -10.127   6.943  13.563  1.00  0.00     0.028 C 
HETATM   29  C1  UNL     1     -11.352   6.957  14.473  1.00  0.00     0.007 C 
ENDBRANCH  27  28
BRANCH  27  30
HETATM   30  O1  UNL     1      -8.222   7.491  14.912  1.00  0.00    -0.390 OA
HETATM   31  C4  UNL     1      -8.138   7.378  16.326  1.00  0.00     0.202 C 
ENDBRANCH  27  30
ENDBRANCH  25  27
ENDBRANCH  22  25
ENDBRANCH  20  21
ENDBRANCH  18  20
ENDBRANCH   1  18
TORSDOF 12
ENDMDL
