MODEL 1
REMARK minimizedAffinity -7.65718079
REMARK CNNscore 0.599510252
REMARK CNNaffinity 6.81689262
REMARK  13 active torsions:
REMARK  status: ('A' for Active; 'I' for Inactive)
REMARK    1  A    between atoms: C3_3  and  O1_4 
REMARK    2  A    between atoms: N1_14  and  O2_16 
REMARK    3  A    between atoms: O2_16  and  C13_17 
REMARK    4  A    between atoms: C13_17  and  C14_18 
REMARK       I    between atoms: C14_18  and  N2_20 
REMARK    5  A    between atoms: N2_20  and  C15_21 
REMARK    6  A    between atoms: C15_21  and  C16_22 
REMARK    7  A    between atoms: C15_21  and  C21_33 
REMARK       I    between atoms: C16_22  and  N3_24 
REMARK    8  A    between atoms: N3_24  and  C17_25 
REMARK    9  A    between atoms: C17_25  and  C18_26 
REMARK   10  A    between atoms: C17_25  and  C20_30 
REMARK   11  A    between atoms: C18_26  and  C19_27 
REMARK   12  A    between atoms: C19_27  and  O6_29 
REMARK   13  A    between atoms: C20_30  and  O8_32 
ROOT
HETATM    1  C1  UNL     1      -4.499   5.165  12.487  1.00  0.00     0.015 C 
HETATM    2  C2  UNL     1      -3.565   5.716  13.010  1.00  0.00    -0.078 C 
HETATM    3  C3  UNL     1      -2.386   6.387  13.601  1.00  0.00     0.128 C 
HETATM    4  C4  UNL     1      -2.056   7.661  12.812  1.00  0.00     0.052 C 
HETATM    5  C5  UNL     1      -2.886   8.776  13.465  1.00  0.00     0.010 C 
HETATM    6  C6  UNL     1      -3.479   8.190  14.767  1.00  0.00     0.002 C 
HETATM    7  C7  UNL     1      -3.661   9.152  15.972  1.00  0.00    -0.004 C 
HETATM    8  C8  UNL     1      -4.207  10.529  15.543  1.00  0.00     0.010 C 
HETATM    9  C9  UNL     1      -3.162  11.634  15.535  1.00  0.00     0.035 C 
HETATM   10  C10 UNL     1      -2.414  11.768  16.835  1.00  0.00    -0.069 C 
HETATM   11  C11 UNL     1      -1.804  12.935  17.114  1.00  0.00     0.030 C 
HETATM   12  C12 UNL     1      -1.007  13.141  18.354  1.00  0.00     0.032 C 
HETATM   13  N1  UNL     1      -0.489  14.322  18.548  1.00  0.00    -0.271 N 
ATOM     14  H1  UNL     1      -0.617  15.114  17.918  1.00  0.00     0.194 HD
HETATM   15  C24 UNL     1      -0.860  11.973  19.314  1.00  0.00     0.060 C 
HETATM   16  C25 UNL     1      -1.040  10.643  18.587  1.00  0.00     0.020 C 
HETATM   17  C26 UNL     1      -2.357  10.559  17.761  1.00  0.00    -0.016 C 
HETATM   18  C27 UNL     1      -3.549  10.626  18.756  1.00  0.00     0.020 C 
HETATM   19  C28 UNL     1      -2.448   9.205  16.956  1.00  0.00     0.002 C 
HETATM   20  C29 UNL     1      -1.164   8.769  16.237  1.00  0.00     0.007 C 
HETATM   21  C30 UNL     1      -1.257   7.326  15.724  1.00  0.00     0.014 C 
HETATM   22  C31 UNL     1      -2.612   6.940  15.047  1.00  0.00     0.003 C 
HETATM   23  C32 UNL     1      -3.339   5.930  15.960  1.00  0.00     0.020 C 
ENDROOT
BRANCH   3  24
HETATM   24  O1  UNL     1      -1.296   5.475  13.553  1.00  0.00    -0.377 OA
HETATM   25  H2  UNL     1      -1.198   5.195  12.625  1.00  0.00     0.211 HD
ENDBRANCH   3  24
BRANCH  13  26
HETATM   26  O2  UNL     1       0.262  14.367  19.729  1.00  0.00    -0.271 OA
BRANCH  26  27
HETATM   27  C13 UNL     1       1.621  14.026  19.440  1.00  0.00     0.303 C 
BRANCH  27  28
HETATM   28  C14 UNL     1       2.271  13.475  20.700  1.00  0.00     0.244 C 
HETATM   29  O3  UNL     1       1.984  13.883  21.822  1.00  0.00    -0.271 OA
HETATM   30  N2  UNL     1       3.176  12.463  20.457  1.00  0.00    -0.346 N 
HETATM   31  H16 UNL     1       3.366  12.253  19.483  1.00  0.00     0.163 HD
BRANCH  30  32
HETATM   32  C15 UNL     1       4.051  11.921  21.505  1.00  0.00     0.180 C 
BRANCH  32  33
HETATM   33  C16 UNL     1       5.538  12.050  21.085  1.00  0.00     0.241 C 
HETATM   34  O4  UNL     1       6.023  11.395  20.166  1.00  0.00    -0.271 OA
HETATM   35  N3  UNL     1       6.233  13.060  21.730  1.00  0.00    -0.344 N 
HETATM   36  H18 UNL     1       5.909  13.223  22.678  1.00  0.00     0.163 HD
BRANCH  35  37
HETATM   37  C17 UNL     1       7.679  13.222  21.524  1.00  0.00     0.192 C 
BRANCH  37  38
HETATM   38  C18 UNL     1       8.024  14.684  21.247  1.00  0.00     0.146 C 
BRANCH  38  39
HETATM   39  C19 UNL     1       9.505  14.861  21.078  1.00  0.00     0.141 C 
HETATM   40  O5  UNL     1      10.257  15.525  21.770  1.00  0.00    -0.650 OA
BRANCH  39  41
HETATM   41  O6  UNL     1       9.994  14.127  20.055  1.00  0.00    -0.776 OA
HETATM   42  H22 UNL     1      10.945  14.360  20.028  1.00  0.00     0.167 HD
ENDBRANCH  39  41
ENDBRANCH  38  39
ENDBRANCH  37  38
BRANCH  37  43
HETATM   43  C20 UNL     1       8.442  12.763  22.769  1.00  0.00     0.164 C 
HETATM   44  O7  UNL     1       8.977  11.677  22.927  1.00  0.00    -0.648 OA
BRANCH  43  45
HETATM   45  O8  UNL     1       8.574  13.725  23.713  1.00  0.00    -0.775 OA
HETATM   46  H23 UNL     1       9.023  13.272  24.457  1.00  0.00     0.167 HD
ENDBRANCH  43  45
ENDBRANCH  37  43
ENDBRANCH  35  37
ENDBRANCH  32  33
BRANCH  32  47
HETATM   47  C21 UNL     1       3.655  10.463  21.834  1.00  0.00     0.009 C 
HETATM   48  C22 UNL     1       3.693  10.127  23.329  1.00  0.00     0.012 C 
HETATM   49  C23 UNL     1       2.278  10.112  21.264  1.00  0.00     0.012 C 
ENDBRANCH  32  47
ENDBRANCH  30  32
ENDBRANCH  27  28
ENDBRANCH  26  27
ENDBRANCH  13  26
TORSDOF 13
ENDMDL
