MODEL 1
REMARK minimizedAffinity -6.6668992
REMARK CNNscore 0.767845094
REMARK CNNaffinity 7.38579416
REMARK  5 active torsions:
REMARK  status: ('A' for Active; 'I' for Inactive)
REMARK    1  A    between atoms: C2_2  and  C3_3 
REMARK    2  A    between atoms: C20_20  and  O1_21 
REMARK    3  A    between atoms: O1_21  and  C21_22 
REMARK    4  A    between atoms: C21_22  and  C22_24 
REMARK    5  A    between atoms: C22_24  and  C23_25 
ROOT
HETATM    1  C3  UNL     1      -3.711  50.631  -9.773  1.00  0.00     0.012 C 
HETATM    2  C4  UNL     1      -4.454  49.912 -10.930  1.00  0.00     0.009 C 
HETATM    3  C5  UNL     1      -3.723  50.289 -12.230  1.00  0.00     0.010 C 
HETATM    4  C6  UNL     1      -2.947  51.564 -11.873  1.00  0.00    -0.039 C 
HETATM    5  C7  UNL     1      -3.925  52.765 -11.931  1.00  0.00     0.015 C 
HETATM    6  C8  UNL     1      -1.738  51.842 -12.774  1.00  0.00     0.010 C 
HETATM    7  C9  UNL     1      -0.851  52.965 -12.200  1.00  0.00     0.011 C 
HETATM    8  C10 UNL     1      -0.408  52.758 -10.706  1.00  0.00    -0.032 C 
HETATM    9  C11 UNL     1       0.616  51.572 -10.746  1.00  0.00     0.016 C 
HETATM   10  C12 UNL     1      -1.662  52.364  -9.820  1.00  0.00    -0.000 C 
HETATM   11  C13 UNL     1      -1.260  52.120  -8.361  1.00  0.00     0.006 C 
HETATM   12  C14 UNL     1      -0.516  53.304  -7.739  1.00  0.00     0.006 C 
HETATM   13  C15 UNL     1       0.692  53.788  -8.573  1.00  0.00     0.003 C 
HETATM   14  C16 UNL     1       1.605  54.881  -7.851  1.00  0.00    -0.035 C 
HETATM   15  C17 UNL     1       0.808  56.159  -7.496  1.00  0.00     0.016 C 
HETATM   16  C18 UNL     1       2.146  54.281  -6.517  1.00  0.00     0.012 C 
HETATM   17  C19 UNL     1       3.265  55.091  -5.868  1.00  0.00     0.034 C 
HETATM   18  C20 UNL     1       4.437  55.341  -6.814  1.00  0.00     0.140 C 
HETATM   19  C26 UNL     1       4.014  55.998  -8.164  1.00  0.00    -0.017 C 
HETATM   20  C27 UNL     1       5.251  55.953  -9.104  1.00  0.00     0.018 C 
HETATM   21  C28 UNL     1       3.674  57.493  -7.986  1.00  0.00     0.018 C 
HETATM   22  C29 UNL     1       2.844  55.147  -8.788  1.00  0.00     0.004 C 
HETATM   23  C30 UNL     1       2.395  55.593 -10.194  1.00  0.00     0.007 C 
HETATM   24  C31 UNL     1       1.535  54.521 -10.870  1.00  0.00     0.011 C 
HETATM   25  C32 UNL     1       0.274  54.093 -10.069  1.00  0.00    -0.032 C 
HETATM   26  C33 UNL     1      -0.726  55.287 -10.146  1.00  0.00     0.016 C 
HETATM   27  C34 UNL     1      -2.446  51.194 -10.456  1.00  0.00     0.006 C 
ENDROOT
BRANCH  18  28
HETATM   28  O1  UNL     1       5.362  56.193  -6.102  1.00  0.00    -0.315 OA
BRANCH  28  29
HETATM   29  C21 UNL     1       6.543  55.650  -5.702  1.00  0.00     0.259 C 
HETATM   30  O2  UNL     1       7.010  54.586  -6.085  1.00  0.00    -0.265 OA
BRANCH  29  31
HETATM   31  C22 UNL     1       7.205  56.535  -4.674  1.00  0.00     0.115 C 
BRANCH  31  32
HETATM   32  C23 UNL     1       8.273  57.460  -5.271  1.00  0.00    -0.013 C 
HETATM   33  C24 UNL     1       8.055  58.893  -4.785  1.00  0.00     0.010 C 
HETATM   34  C25 UNL     1       9.684  56.998  -4.901  1.00  0.00     0.010 C 
ENDBRANCH  31  32
ENDBRANCH  29  31
ENDBRANCH  28  29
ENDBRANCH  18  28
BRANCH   1  35
HETATM   35  C2  UNL     1      -3.436  49.673  -8.645  1.00  0.00    -0.032 C 
HETATM   36  C1  UNL     1      -3.778  48.376  -8.659  1.00  0.00     0.007 C 
ENDBRANCH   1  35
TORSDOF 5
ENDMDL
