MODEL 1
REMARK minimizedAffinity -9.64585686
REMARK  6 active torsions:
REMARK  status: ('A' for Active; 'I' for Inactive)
REMARK    1  A    between atoms: C4_4  and  C5_5 
REMARK    2  A    between atoms: C5_5  and  C6_6 
REMARK    3  A    between atoms: C6_6  and  C7_7 
REMARK    4  A    between atoms: C7_7  and  C9_9 
REMARK    5  A    between atoms: C24_24  and  O1_25 
REMARK    6  A    between atoms: C27_28  and  O2_29 
ROOT
HETATM    1  C9  UNL     1      -0.693  49.666 -18.675  1.00  0.00    -0.002 C 
HETATM    2  C10 UNL     1      -1.894  48.728 -18.356  1.00  0.00     0.007 C 
HETATM    3  C11 UNL     1      -2.681  48.523 -19.664  1.00  0.00     0.015 C 
HETATM    4  C12 UNL     1      -1.742  49.032 -20.770  1.00  0.00    -0.013 C 
HETATM    5  C13 UNL     1      -0.754  47.870 -21.103  1.00  0.00     0.021 C 
HETATM    6  C14 UNL     1      -2.334  49.440 -22.115  1.00  0.00    -0.065 C 
HETATM    7  C15 UNL     1      -1.698  50.365 -22.880  1.00  0.00    -0.068 C 
HETATM    8  C16 UNL     1      -0.449  51.095 -22.378  1.00  0.00     0.036 C 
HETATM    9  C17 UNL     1       0.042  50.778 -20.948  1.00  0.00     0.015 C 
HETATM   10  C18 UNL     1      -1.098  50.277 -20.053  1.00  0.00    -0.029 C 
HETATM   11  C19 UNL     1      -2.103  51.449 -19.825  1.00  0.00     0.016 C 
HETATM   12  C20 UNL     1      -2.235  50.775 -24.269  1.00  0.00    -0.014 C 
HETATM   13  C21 UNL     1      -3.082  52.056 -24.059  1.00  0.00     0.020 C 
HETATM   14  C22 UNL     1      -1.094  51.081 -25.281  1.00  0.00     0.016 C 
HETATM   15  C23 UNL     1      -1.595  51.373 -26.695  1.00  0.00     0.033 C 
HETATM   16  C24 UNL     1      -2.479  50.254 -27.232  1.00  0.00     0.118 C 
HETATM   17  C25 UNL     1      -3.611  49.897 -26.273  1.00  0.00     0.039 C 
HETATM   18  C26 UNL     1      -3.073  49.598 -24.864  1.00  0.00     0.029 C 
HETATM   19  C27 UNL     1      -4.181  49.165 -23.897  1.00  0.00     0.127 C 
HETATM   20  C28 UNL     1      -3.596  48.726 -22.548  1.00  0.00     0.067 C 
ENDROOT
BRANCH   1  21
HETATM   21  C7  UNL     1      -0.354  50.609 -17.486  1.00  0.00    -0.014 C 
HETATM   22  C8  UNL     1      -1.502  50.721 -16.476  1.00  0.00     0.010 C 
BRANCH  21  23
HETATM   23  C6  UNL     1       0.079  52.028 -17.940  1.00  0.00     0.008 C 
BRANCH  23  24
HETATM   24  C5  UNL     1       1.481  52.459 -17.494  1.00  0.00     0.028 C 
BRANCH  24  25
HETATM   25  C4  UNL     1       1.796  51.914 -16.126  1.00  0.00    -0.025 C 
HETATM   26  C2  UNL     1       2.990  51.880 -15.502  1.00  0.00    -0.091 C 
HETATM   27  C1  UNL     1       3.117  51.276 -14.127  1.00  0.00     0.042 C 
HETATM   28  C3  UNL     1       4.281  52.417 -16.058  1.00  0.00     0.042 C 
ENDBRANCH  24  25
ENDBRANCH  23  24
ENDBRANCH  21  23
ENDBRANCH   1  21
BRANCH  19  29
HETATM   29  O2  UNL     1      -4.937  48.084 -24.449  1.00  0.00    -0.395 OA
HETATM   30  H44 UNL     1      -4.320  47.360 -24.651  1.00  0.00     0.210 HD
ENDBRANCH  19  29
BRANCH  16  31
HETATM   31  O1  UNL     1      -3.018  50.635 -28.493  1.00  0.00    -0.396 OA
HETATM   32  H39 UNL     1      -3.568  51.426 -28.359  1.00  0.00     0.210 HD
ENDBRANCH  16  31
TORSDOF 6
ENDMDL
