MODEL 1
REMARK minimizedAffinity -8.58158398
REMARK CNNscore 0.454469234
REMARK CNNaffinity 7.14197731
REMARK  14 active torsions:
REMARK  status: ('A' for Active; 'I' for Inactive)
REMARK    1  A    between atoms: O1_2  and  C2_3 
REMARK    2  A    between atoms: C8_9  and  O2_10 
REMARK    3  A    between atoms: O2_10  and  C9_11 
REMARK    4  A    between atoms: C10_13  and  C11_14 
REMARK    5  A    between atoms: C11_14  and  O4_15 
REMARK    6  A    between atoms: C12_16  and  O5_17 
REMARK    7  A    between atoms: C13_18  and  O6_19 
REMARK    8  A    between atoms: C14_20  and  O7_21 
REMARK    9  A    between atoms: C18_25  and  C19_26 
REMARK   10  A    between atoms: C24_32  and  C25_33 
REMARK   11  A    between atoms: C25_33  and  C27_35 
REMARK   12  A    between atoms: C27_35  and  C28_36 
REMARK   13  A    between atoms: C29_37  and  C30_38 
REMARK   14  A    between atoms: C30_38  and  O9_41 
ROOT
HETATM    1  C2  UNL     1      -4.496  51.151 -21.978  1.00  0.00     0.149 C 
HETATM    2  C3  UNL     1      -5.702  50.290 -22.151  1.00  0.00     0.009 C 
HETATM    3  C4  UNL     1      -5.641  49.051 -22.666  1.00  0.00    -0.066 C 
HETATM    4  C5  UNL     1      -4.304  48.487 -23.113  1.00  0.00     0.031 C 
HETATM    5  C6  UNL     1      -4.291  48.592 -24.657  1.00  0.00     0.013 C 
HETATM    6  C7  UNL     1      -5.640  48.209 -25.302  1.00  0.00     0.034 C 
HETATM    7  C8  UNL     1      -6.551  47.396 -24.363  1.00  0.00     0.136 C 
HETATM    8  C15 UNL     1      -6.861  48.189 -23.033  1.00  0.00     0.002 C 
HETATM    9  C16 UNL     1      -7.117  47.173 -21.898  1.00  0.00     0.022 C 
HETATM   10  C17 UNL     1      -8.156  49.022 -23.192  1.00  0.00     0.022 C 
HETATM   11  C18 UNL     1      -3.035  49.002 -22.307  1.00  0.00     0.027 C 
HETATM   12  C20 UNL     1      -2.583  47.814 -21.371  1.00  0.00     0.018 C 
HETATM   13  C21 UNL     1      -1.710  48.099 -20.138  1.00  0.00     0.011 C 
HETATM   14  C22 UNL     1      -1.736  49.545 -19.626  1.00  0.00    -0.032 C 
HETATM   15  C23 UNL     1      -0.508  50.280 -20.259  1.00  0.00     0.016 C 
HETATM   16  C24 UNL     1      -1.679  49.740 -18.071  1.00  0.00    -0.002 C 
HETATM   17  C34 UNL     1      -2.261  51.174 -17.897  1.00  0.00     0.006 C 
HETATM   18  C35 UNL     1      -3.020  51.529 -19.188  1.00  0.00     0.011 C 
HETATM   19  C36 UNL     1      -3.126  50.202 -19.969  1.00  0.00    -0.029 C 
HETATM   20  C37 UNL     1      -4.374  49.471 -19.385  1.00  0.00     0.016 C 
HETATM   21  C38 UNL     1      -3.253  50.363 -21.515  1.00  0.00     0.043 C 
ENDROOT
BRANCH   7  22
HETATM   22  O2  UNL     1      -7.771  47.072 -25.042  1.00  0.00    -0.352 OA
BRANCH  22  23
HETATM   23  C9  UNL     1      -8.869  47.941 -24.757  1.00  0.00     0.292 C 
HETATM   24  O3  UNL     1      -9.868  47.243 -24.028  1.00  0.00    -0.348 OA
HETATM   25  C10 UNL     1     -10.665  46.282 -24.738  1.00  0.00     0.179 C 
HETATM   26  C12 UNL     1     -10.859  46.582 -26.230  1.00  0.00     0.180 C 
HETATM   27  C13 UNL     1     -10.764  48.085 -26.455  1.00  0.00     0.183 C 
HETATM   28  C14 UNL     1      -9.360  48.559 -26.093  1.00  0.00     0.204 C 
BRANCH  25  29
HETATM   29  C11 UNL     1     -10.141  44.855 -24.493  1.00  0.00     0.198 C 
BRANCH  29  30
HETATM   30  O4  UNL     1      -9.123  44.806 -23.501  1.00  0.00    -0.398 OA
HETATM   31  H16 UNL     1      -9.451  45.310 -22.731  1.00  0.00     0.209 HD
ENDBRANCH  29  30
ENDBRANCH  25  29
BRANCH  26  32
HETATM   32  O5  UNL     1     -12.144  46.113 -26.665  1.00  0.00    -0.390 OA
HETATM   33  H18 UNL     1     -12.196  46.377 -27.603  1.00  0.00     0.210 HD
ENDBRANCH  26  32
BRANCH  27  34
HETATM   34  O6  UNL     1     -11.035  48.383 -27.835  1.00  0.00    -0.390 OA
HETATM   35  H20 UNL     1     -10.845  49.340 -27.934  1.00  0.00     0.210 HD
ENDBRANCH  27  34
BRANCH  28  36
HETATM   36  O7  UNL     1      -9.379  49.997 -26.055  1.00  0.00    -0.388 OA
HETATM   37  H22 UNL     1      -8.460  50.303 -25.930  1.00  0.00     0.210 HD
ENDBRANCH  28  36
ENDBRANCH  22  23
ENDBRANCH   7  22
BRANCH  11  38
HETATM   38  C19 UNL     1      -1.917  49.273 -23.324  1.00  0.00     0.241 C 
HETATM   39  O8  UNL     1      -1.361  50.357 -23.480  1.00  0.00    -0.306 OA
ENDBRANCH  11  38
BRANCH   1  40
HETATM   40  O1  UNL     1      -4.168  51.725 -23.254  1.00  0.00    -0.386 OA
HETATM   41  C1  UNL     1      -5.313  52.129 -24.000  1.00  0.00     0.202 C 
ENDBRANCH   1  40
BRANCH  16  42
HETATM   42  C25 UNL     1      -0.340  49.543 -17.294  1.00  0.00    -0.010 C 
HETATM   43  C26 UNL     1      -0.480  48.514 -16.165  1.00  0.00     0.010 C 
BRANCH  42  44
HETATM   44  C27 UNL     1       0.148  50.906 -16.728  1.00  0.00     0.031 C 
BRANCH  44  45
HETATM   45  C28 UNL     1       1.542  50.893 -16.163  1.00  0.00    -0.027 C 
HETATM   46  C29 UNL     1       1.840  51.301 -14.919  1.00  0.00     0.006 C 
BRANCH  46  47
HETATM   47  C30 UNL     1       3.196  51.291 -14.241  1.00  0.00     0.070 C 
HETATM   48  C31 UNL     1       3.742  49.903 -13.865  1.00  0.00     0.050 C 
HETATM   49  C32 UNL     1       4.195  51.949 -15.205  1.00  0.00     0.050 C 
BRANCH  47  50
HETATM   50  O9  UNL     1       3.146  52.160 -13.094  1.00  0.00    -0.382 OA
HETATM   51  C33 UNL     1       2.611  51.599 -11.902  1.00  0.00     0.202 C 
ENDBRANCH  47  50
ENDBRANCH  46  47
ENDBRANCH  44  45
ENDBRANCH  42  44
ENDBRANCH  16  42
TORSDOF 14
ENDMDL
