MODEL 1
REMARK minimizedAffinity -9.64686298
REMARK CNNscore 0.648218095
REMARK CNNaffinity 7.26740408
REMARK  11 active torsions:
REMARK  status: ('A' for Active; 'I' for Inactive)
REMARK    1  A    between atoms: C2_2  and  O2_4 
REMARK    2  A    between atoms: O2_4  and  C3_5 
REMARK    3  A    between atoms: C4_6  and  O3_7 
REMARK    4  A    between atoms: O3_7  and  C5_8 
REMARK    5  A    between atoms: C15_18  and  C16_19 
REMARK    6  A    between atoms: C20_23  and  C21_24 
REMARK    7  A    between atoms: C21_24  and  O4_27 
REMARK    8  A    between atoms: C24_29  and  O6_30 
REMARK    9  A    between atoms: C30_36  and  O7_37 
REMARK   10  A    between atoms: C36_44  and  O9_45 
REMARK   11  A    between atoms: C37_46  and  O10_47 
ROOT
HETATM    1  C5  UNL     1      -3.495  48.274 -23.180  1.00  0.00     0.133 C 
HETATM    2  C6  UNL     1      -4.903  48.275 -23.788  1.00  0.00     0.034 C 
HETATM    3  C7  UNL     1      -6.006  48.708 -22.833  1.00  0.00     0.013 C 
HETATM    4  C8  UNL     1      -5.922  47.971 -21.510  1.00  0.00    -0.025 A 
HETATM    5  C9  UNL     1      -6.713  46.694 -21.415  1.00  0.00     0.021 A 
HETATM    6  C10 UNL     1      -7.181  47.891 -20.606  1.00  0.00    -0.027 A 
HETATM    7  C11 UNL     1      -8.529  48.460 -21.028  1.00  0.00     0.011 C 
HETATM    8  C12 UNL     1      -9.712  47.801 -20.287  1.00  0.00     0.011 C 
HETATM    9  C13 UNL     1      -9.349  47.122 -18.942  1.00  0.00    -0.028 C 
HETATM   10  C14 UNL     1      -8.948  45.653 -19.231  1.00  0.00     0.016 C 
HETATM   11  C15 UNL     1     -10.459  47.102 -17.829  1.00  0.00     0.057 C 
HETATM   12  C24 UNL     1      -9.632  46.959 -16.503  1.00  0.00     0.126 C 
HETATM   13  C25 UNL     1      -8.150  47.260 -16.863  1.00  0.00     0.042 C 
HETATM   14  C26 UNL     1      -8.215  47.963 -18.233  1.00  0.00    -0.029 C 
HETATM   15  C27 UNL     1      -8.642  49.450 -17.906  1.00  0.00     0.016 C 
HETATM   16  C28 UNL     1      -6.911  48.090 -19.106  1.00  0.00     0.006 C 
HETATM   17  C29 UNL     1      -5.664  47.335 -18.637  1.00  0.00     0.038 C 
HETATM   18  C30 UNL     1      -4.426  47.914 -19.347  1.00  0.00     0.124 C 
HETATM   19  C31 UNL     1      -4.487  47.843 -20.903  1.00  0.00     0.034 C 
HETATM   20  C32 UNL     1      -3.426  48.709 -21.681  1.00  0.00    -0.015 C 
HETATM   21  C33 UNL     1      -1.996  48.381 -21.175  1.00  0.00     0.018 C 
HETATM   22  C34 UNL     1      -3.617  50.234 -21.494  1.00  0.00     0.018 C 
ENDROOT
BRANCH   1  23
HETATM   23  O3  UNL     1      -2.652  49.101 -23.993  1.00  0.00    -0.352 OA
BRANCH  23  24
HETATM   24  C4  UNL     1      -3.302  49.565 -25.185  1.00  0.00     0.292 C 
HETATM   25  C3  UNL     1      -2.556  50.820 -25.672  1.00  0.00     0.218 C 
HETATM   26  C37 UNL     1      -3.099  51.242 -27.041  1.00  0.00     0.183 C 
HETATM   27  C36 UNL     1      -3.107  50.061 -28.017  1.00  0.00     0.173 C 
HETATM   28  C35 UNL     1      -3.832  48.875 -27.397  1.00  0.00     0.205 C 
HETATM   29  O8  UNL     1      -3.260  48.512 -26.145  1.00  0.00    -0.356 OA
BRANCH  25  30
HETATM   30  O2  UNL     1      -2.781  51.886 -24.717  1.00  0.00    -0.309 OA
BRANCH  30  31
HETATM   31  C2  UNL     1      -1.695  52.630 -24.392  1.00  0.00     0.255 C 
HETATM   32  C1  UNL     1      -1.144  52.204 -23.063  1.00  0.00     0.126 C 
HETATM   33  O1  UNL     1      -1.249  53.547 -25.073  1.00  0.00    -0.266 OA
ENDBRANCH  30  31
ENDBRANCH  25  30
BRANCH  26  34
HETATM   34  O10 UNL     1      -2.369  52.319 -27.653  1.00  0.00    -0.390 OA
HETATM   35  H60 UNL     1      -1.531  52.455 -27.161  1.00  0.00     0.210 HD
ENDBRANCH  26  34
BRANCH  27  36
HETATM   36  O9  UNL     1      -3.754  50.447 -29.230  1.00  0.00    -0.391 OA
HETATM   37  H58 UNL     1      -3.403  51.340 -29.434  1.00  0.00     0.210 HD
ENDBRANCH  27  36
ENDBRANCH  23  24
ENDBRANCH   1  23
BRANCH  18  38
HETATM   38  O7  UNL     1      -4.210  49.246 -18.881  1.00  0.00    -0.395 OA
HETATM   39  H47 UNL     1      -4.116  49.209 -17.912  1.00  0.00     0.210 HD
ENDBRANCH  18  38
BRANCH  11  40
HETATM   40  C16 UNL     1     -11.761  46.256 -17.951  1.00  0.00     0.065 C 
HETATM   41  C17 UNL     1     -11.470  44.910 -18.648  1.00  0.00     0.046 C 
HETATM   42  C18 UNL     1     -12.610  45.999 -16.700  1.00  0.00     0.041 C 
HETATM   43  C19 UNL     1     -14.035  46.344 -17.078  1.00  0.00     0.038 C 
HETATM   44  C20 UNL     1     -13.990  46.630 -18.565  1.00  0.00     0.156 C 
HETATM   45  O5  UNL     1     -12.630  47.005 -18.845  1.00  0.00    -0.372 OA
BRANCH  44  46
HETATM   46  C21 UNL     1     -14.960  47.714 -19.092  1.00  0.00     0.076 C 
HETATM   47  C22 UNL     1     -16.344  47.128 -19.384  1.00  0.00     0.048 C 
HETATM   48  C23 UNL     1     -15.077  48.940 -18.178  1.00  0.00     0.048 C 
BRANCH  46  49
HETATM   49  O4  UNL     1     -14.430  48.181 -20.345  1.00  0.00    -0.388 OA
HETATM   50  H35 UNL     1     -13.573  48.589 -20.123  1.00  0.00     0.210 HD
ENDBRANCH  46  49
ENDBRANCH  44  46
ENDBRANCH  11  40
BRANCH  12  51
HETATM   51  O6  UNL     1      -9.704  45.676 -15.901  1.00  0.00    -0.395 OA
HETATM   52  H37 UNL     1      -9.222  45.730 -15.055  1.00  0.00     0.210 HD
ENDBRANCH  12  51
TORSDOF 11
ENDMDL
