MODEL 1
REMARK minimizedAffinity -8.09196568
REMARK CNNscore 0.490963191
REMARK CNNaffinity 5.95793486
REMARK  12 active torsions:
REMARK  status: ('A' for Active; 'I' for Inactive)
REMARK    1  A    between atoms: C19_21  and  O3_22 
REMARK    2  A    between atoms: C19_21  and  C20_23 
REMARK    3  A    between atoms: C20_23  and  C21_25 
REMARK    4  A    between atoms: C21_25  and  O5_26 
REMARK    5  A    between atoms: O5_26  and  C22_27 
REMARK    6  A    between atoms: C22_27  and  C23_29 
REMARK    7  A    between atoms: C23_29  and  C24_30 
REMARK    8  A    between atoms: C24_30  and  C25_31 
REMARK       I    between atoms: C25_31  and  N1_33 
REMARK    9  A    between atoms: N1_33  and  C26_34 
REMARK   10  A    between atoms: C26_34  and  C27_35 
REMARK   11  A    between atoms: C30_38  and  C31_39 
REMARK   12  A    between atoms: C31_39  and  O9_41 
ROOT
HETATM    1  C1  UNL     1      -1.454  50.083 -24.218  1.00  0.00     0.021 C 
HETATM    2  C2  UNL     1      -2.062  50.672 -22.921  1.00  0.00    -0.009 C 
HETATM    3  C3  UNL     1      -1.868  52.212 -22.895  1.00  0.00     0.022 C 
HETATM    4  C4  UNL     1      -0.397  52.634 -22.898  1.00  0.00     0.084 C 
HETATM    5  C5  UNL     1       0.437  51.850 -21.916  1.00  0.00     0.149 C 
HETATM    6  O1  UNL     1       1.588  52.172 -21.640  1.00  0.00    -0.293 OA
HETATM    7  C6  UNL     1      -0.148  50.647 -21.275  1.00  0.00     0.053 C 
HETATM    8  C7  UNL     1      -1.302  50.110 -21.707  1.00  0.00    -0.067 C 
HETATM    9  C8  UNL     1      -1.943  48.986 -20.922  1.00  0.00     0.035 C 
HETATM   10  C9  UNL     1      -2.772  48.031 -21.773  1.00  0.00     0.010 C 
HETATM   11  C10 UNL     1      -3.752  48.728 -22.735  1.00  0.00     0.003 C 
HETATM   12  C11 UNL     1      -3.563  50.278 -22.763  1.00  0.00     0.072 C 
HETATM   13  C12 UNL     1      -4.552  50.868 -23.780  1.00  0.00     0.133 C 
HETATM   14  O2  UNL     1      -4.221  51.588 -24.718  1.00  0.00    -0.297 OA
HETATM   15  C13 UNL     1      -6.020  50.523 -23.552  1.00  0.00     0.091 C 
HETATM   16  C14 UNL     1      -6.184  48.996 -23.552  1.00  0.00     0.005 C 
HETATM   17  C15 UNL     1      -5.872  48.457 -24.976  1.00  0.00     0.019 C 
HETATM   18  C16 UNL     1      -5.235  48.426 -22.453  1.00  0.00     0.002 C 
HETATM   19  C17 UNL     1      -5.667  46.970 -22.336  1.00  0.00     0.009 C 
HETATM   20  C18 UNL     1      -7.185  46.996 -22.581  1.00  0.00     0.047 C 
HETATM   21  C19 UNL     1      -7.550  48.439 -23.049  1.00  0.00     0.128 C 
ENDROOT
BRANCH  21  22
HETATM   22  O3  UNL     1      -7.959  49.165 -21.888  1.00  0.00    -0.381 OA
HETATM   23  H25 UNL     1      -8.672  48.649 -21.460  1.00  0.00     0.211 HD
ENDBRANCH  21  22
BRANCH  21  24
HETATM   24  C20 UNL     1      -8.674  48.431 -24.119  1.00  0.00     0.185 C 
HETATM   25  O4  UNL     1      -8.941  49.438 -24.784  1.00  0.00    -0.292 OA
BRANCH  24  26
HETATM   26  C21 UNL     1      -9.532  47.167 -24.273  1.00  0.00     0.260 C 
BRANCH  26  27
HETATM   27  O5  UNL     1     -10.781  47.228 -24.949  1.00  0.00    -0.314 OA
BRANCH  27  28
HETATM   28  C22 UNL     1     -11.801  46.573 -24.327  1.00  0.00     0.259 C 
HETATM   29  O6  UNL     1     -12.383  46.985 -23.332  1.00  0.00    -0.265 OA
BRANCH  28  30
HETATM   30  C23 UNL     1     -12.142  45.299 -25.049  1.00  0.00     0.120 C 
BRANCH  30  31
HETATM   31  C24 UNL     1     -12.401  45.588 -26.522  1.00  0.00     0.112 C 
BRANCH  31  32
HETATM   32  C25 UNL     1     -13.877  45.713 -26.823  1.00  0.00     0.218 C 
HETATM   33  O7  UNL     1     -14.347  46.600 -27.526  1.00  0.00    -0.274 OA
HETATM   34  N1  UNL     1     -14.630  44.745 -26.196  1.00  0.00    -0.361 N 
HETATM   35  H32 UNL     1     -14.160  44.047 -25.629  1.00  0.00     0.162 HD
BRANCH  34  36
HETATM   36  C26 UNL     1     -16.079  44.724 -26.241  1.00  0.00     0.127 C 
BRANCH  36  37
HETATM   37  C27 UNL     1     -16.724  45.691 -25.231  1.00  0.00     0.003 C 
HETATM   38  C28 UNL     1     -16.500  45.248 -23.778  1.00  0.00     0.007 C 
HETATM   39  C29 UNL     1     -17.120  46.234 -22.787  1.00  0.00     0.015 C 
HETATM   40  C30 UNL     1     -18.612  46.468 -23.049  1.00  0.00     0.084 C 
HETATM   41  C32 UNL     1     -18.878  46.841 -24.514  1.00  0.00     0.015 C 
HETATM   42  C33 UNL     1     -18.221  45.893 -25.516  1.00  0.00     0.007 C 
BRANCH  40  43
HETATM   43  C31 UNL     1     -19.433  45.273 -22.610  1.00  0.00     0.143 C 
HETATM   44  O8  UNL     1     -20.330  44.724 -23.225  1.00  0.00    -0.650 OA
BRANCH  43  45
HETATM   45  O9  UNL     1     -19.073  44.826 -21.391  1.00  0.00    -0.776 OA
HETATM   46  H41 UNL     1     -19.671  44.066 -21.228  1.00  0.00     0.167 HD
ENDBRANCH  43  45
ENDBRANCH  40  43
ENDBRANCH  36  37
ENDBRANCH  34  36
ENDBRANCH  31  32
ENDBRANCH  30  31
ENDBRANCH  28  30
ENDBRANCH  27  28
ENDBRANCH  26  27
ENDBRANCH  24  26
ENDBRANCH  21  24
TORSDOF 12
ENDMDL
