MODEL 1
REMARK minimizedAffinity -9.44764996
REMARK  5 active torsions:
REMARK  status: ('A' for Active; 'I' for Inactive)
REMARK    1  A    between atoms: C2_2  and  C4_4 
REMARK    2  A    between atoms: C7_7  and  C8_8 
REMARK    3  A    between atoms: C8_8  and  O2_10 
REMARK    4  A    between atoms: C22_25  and  C24_27 
REMARK    5  A    between atoms: C24_27  and  O4_28 
ROOT
HETATM    1  C4  UNL     1       0.044  51.907 -23.102  1.00  0.00     0.019 C 
HETATM    2  C5  UNL     1       0.733  52.671 -24.265  1.00  0.00     0.011 C 
HETATM    3  C6  UNL     1      -0.381  53.063 -25.253  1.00  0.00     0.021 C 
HETATM    4  C7  UNL     1      -1.472  52.013 -25.007  1.00  0.00     0.050 C 
HETATM    5  C9  UNL     1      -2.877  52.418 -25.466  1.00  0.00     0.022 C 
HETATM    6  C10 UNL     1      -3.926  51.423 -24.931  1.00  0.00     0.011 C 
HETATM    7  C11 UNL     1      -3.933  51.201 -23.370  1.00  0.00    -0.032 C 
HETATM    8  C12 UNL     1      -4.442  52.550 -22.766  1.00  0.00     0.016 C 
HETATM    9  C13 UNL     1      -2.457  50.928 -22.899  1.00  0.00     0.000 C 
HETATM   10  C14 UNL     1      -2.379  50.836 -21.374  1.00  0.00     0.006 C 
HETATM   11  C15 UNL     1      -3.521  50.053 -20.736  1.00  0.00     0.006 C 
HETATM   12  C16 UNL     1      -4.227  49.082 -21.711  1.00  0.00     0.003 C 
HETATM   13  C17 UNL     1      -5.186  48.022 -20.961  1.00  0.00    -0.035 C 
HETATM   14  C18 UNL     1      -5.370  46.760 -21.850  1.00  0.00     0.016 C 
HETATM   15  C19 UNL     1      -4.560  47.562 -19.620  1.00  0.00     0.017 C 
HETATM   16  C20 UNL     1      -5.362  46.516 -18.869  1.00  0.00     0.080 C 
HETATM   17  C21 UNL     1      -6.860  46.697 -18.903  1.00  0.00     0.137 C 
HETATM   18  O3  UNL     1      -7.558  45.942 -18.217  1.00  0.00    -0.297 OA
HETATM   19  C22 UNL     1      -7.527  47.792 -19.747  1.00  0.00     0.042 C 
HETATM   20  C23 UNL     1      -8.592  47.097 -20.620  1.00  0.00     0.026 C 
HETATM   21  C25 UNL     1      -6.537  48.688 -20.581  1.00  0.00     0.012 C 
HETATM   22  C26 UNL     1      -7.197  49.360 -21.800  1.00  0.00     0.007 C 
HETATM   23  C27 UNL     1      -6.295  50.417 -22.435  1.00  0.00     0.011 C 
HETATM   24  C28 UNL     1      -4.895  49.924 -22.900  1.00  0.00    -0.032 C 
HETATM   25  C29 UNL     1      -5.112  48.987 -24.118  1.00  0.00     0.016 C 
HETATM   26  C30 UNL     1      -1.460  51.963 -23.468  1.00  0.00     0.017 C 
ENDROOT
BRANCH   4  27
HETATM   27  C8  UNL     1      -1.049  50.772 -25.803  1.00  0.00     0.149 C 
HETATM   28  O1  UNL     1       0.040  50.614 -26.333  1.00  0.00    -0.649 OA
BRANCH  27  29
HETATM   29  O2  UNL     1      -1.942  49.771 -25.853  1.00  0.00    -0.776 OA
HETATM   30  H11 UNL     1      -1.474  49.071 -26.353  1.00  0.00     0.167 HD
ENDBRANCH  27  29
ENDBRANCH   4  27
BRANCH   1  31
HETATM   31  C2  UNL     1       0.454  52.482 -21.753  1.00  0.00    -0.088 C 
HETATM   32  C1  UNL     1       0.398  51.795 -20.597  1.00  0.00     0.014 C 
HETATM   33  C3  UNL     1       0.924  53.914 -21.773  1.00  0.00     0.043 C 
ENDBRANCH   1  31
BRANCH  19  34
HETATM   34  C24 UNL     1      -8.223  48.705 -18.695  1.00  0.00     0.181 C 
BRANCH  34  35
HETATM   35  O4  UNL     1      -7.702  48.575 -17.374  1.00  0.00    -0.400 OA
HETATM   36  H37 UNL     1      -6.733  48.450 -17.432  1.00  0.00     0.209 HD
ENDBRANCH  34  35
ENDBRANCH  19  34
TORSDOF 5
ENDMDL
