MODEL 1
REMARK minimizedAffinity -7.63990355
REMARK CNNscore 0.412931949
REMARK CNNaffinity 7.17718267
REMARK  10 active torsions:
REMARK  status: ('A' for Active; 'I' for Inactive)
REMARK    1  A    between atoms: C12_14  and  C13_15 
REMARK    2  A    between atoms: C13_15  and  C15_17 
REMARK    3  A    between atoms: C15_17  and  C16_18 
REMARK    4  A    between atoms: C16_18  and  C17_19 
REMARK    5  A    between atoms: C18_20  and  C20_22 
REMARK    6  A    between atoms: C20_22  and  O3_23 
REMARK    7  A    between atoms: C26_29  and  C27_30 
REMARK    8  A    between atoms: C27_30  and  C28_31 
REMARK    9  A    between atoms: C28_31  and  C29_32 
REMARK   10  A    between atoms: C29_32  and  O5_34 
ROOT
HETATM    1  C1  UNL     1       0.601   5.509  13.529  1.00  0.00     0.025 C 
HETATM    2  C2  UNL     1      -0.206   6.568  13.680  1.00  0.00     0.015 C 
HETATM    3  C3  UNL     1       0.220   7.754  14.454  1.00  0.00     0.289 C 
HETATM    4  O1  UNL     1       1.330   7.962  14.908  1.00  0.00    -0.260 OA
HETATM    5  O2  UNL     1      -0.846   8.590  14.555  1.00  0.00    -0.311 OA
HETATM    6  C4  UNL     1      -2.042   7.949  14.070  1.00  0.00     0.142 C 
HETATM    7  C5  UNL     1      -2.886   7.557  15.275  1.00  0.00     0.039 C 
HETATM    8  C6  UNL     1      -4.111   6.683  14.972  1.00  0.00     0.006 C 
HETATM    9  C7  UNL     1      -3.815   5.537  13.976  1.00  0.00    -0.027 A 
HETATM   10  C8  UNL     1      -5.045   4.692  13.592  1.00  0.00     0.011 C 
HETATM   11  C9  UNL     1      -6.345   5.474  13.347  1.00  0.00     0.011 C 
HETATM   12  C10 UNL     1      -6.632   6.458  14.491  1.00  0.00    -0.032 C 
HETATM   13  C11 UNL     1      -6.865   5.655  15.809  1.00  0.00     0.016 C 
HETATM   14  C12 UNL     1      -7.831   7.446  14.302  1.00  0.00    -0.002 C 
HETATM   15  C21 UNL     1      -7.416   8.649  15.208  1.00  0.00     0.006 C 
HETATM   16  C22 UNL     1      -5.922   8.494  15.547  1.00  0.00     0.011 C 
HETATM   17  C23 UNL     1      -5.401   7.455  14.546  1.00  0.00    -0.032 C 
HETATM   18  C24 UNL     1      -5.149   8.211  13.202  1.00  0.00     0.016 C 
HETATM   19  C25 UNL     1      -2.607   4.680  14.264  1.00  0.00     0.022 A 
HETATM   20  C26 UNL     1      -2.548   5.614  13.066  1.00  0.00    -0.021 A 
HETATM   21  C31 UNL     1      -1.589   6.810  13.170  1.00  0.00     0.063 C 
ENDROOT
BRANCH  14  22
HETATM   22  C13 UNL     1      -9.294   6.981  14.591  1.00  0.00    -0.014 C 
HETATM   23  C14 UNL     1     -10.053   6.631  13.306  1.00  0.00     0.010 C 
BRANCH  22  24
HETATM   24  C15 UNL     1     -10.061   8.080  15.378  1.00  0.00     0.008 C 
BRANCH  24  25
HETATM   25  C16 UNL     1     -10.800   9.085  14.484  1.00  0.00     0.028 C 
BRANCH  25  26
HETATM   26  C17 UNL     1     -12.265   9.132  14.824  1.00  0.00    -0.022 C 
HETATM   27  C18 UNL     1     -13.293   9.416  13.998  1.00  0.00    -0.064 C 
HETATM   28  C19 UNL     1     -13.155   9.689  12.524  1.00  0.00     0.045 C 
BRANCH  27  29
HETATM   29  C20 UNL     1     -14.708   9.450  14.513  1.00  0.00     0.197 C 
BRANCH  29  30
HETATM   30  O3  UNL     1     -15.474  10.316  13.689  1.00  0.00    -0.397 OA
HETATM   31  H29 UNL     1     -16.372  10.327  14.057  1.00  0.00     0.209 HD
ENDBRANCH  29  30
ENDBRANCH  27  29
ENDBRANCH  25  26
ENDBRANCH  24  25
ENDBRANCH  22  24
ENDBRANCH  14  22
BRANCH  20  32
HETATM   32  C27 UNL     1      -2.657   5.070  11.631  1.00  0.00     0.021 C 
BRANCH  32  33
HETATM   33  C28 UNL     1      -1.463   4.247  11.148  1.00  0.00     0.112 C 
BRANCH  33  34
HETATM   34  C29 UNL     1      -1.739   2.767  11.253  1.00  0.00     0.258 C 
HETATM   35  O4  UNL     1      -2.811   2.266  11.565  1.00  0.00    -0.265 OA
BRANCH  34  36
HETATM   36  O5  UNL     1      -0.601   2.071  10.970  1.00  0.00    -0.326 OA
HETATM   37  C30 UNL     1      -0.832   0.730  10.536  1.00  0.00     0.213 C 
ENDBRANCH  34  36
ENDBRANCH  33  34
ENDBRANCH  32  33
ENDBRANCH  20  32
TORSDOF 10
ENDMDL
