MODEL 1
REMARK minimizedAffinity -9.82657433
REMARK  5 active torsions:
REMARK  status: ('A' for Active; 'I' for Inactive)
REMARK    1  A    between atoms: C4_4  and  C5_5 
REMARK    2  A    between atoms: C5_5  and  C6_6 
REMARK    3  A    between atoms: C6_6  and  C7_7 
REMARK    4  A    between atoms: C7_7  and  C9_9 
REMARK    5  A    between atoms: C24_24  and  O1_26 
ROOT
HETATM    1  C9  UNL     1      -1.209  48.926 -18.148  1.00  0.00    -0.002 C 
HETATM    2  C10 UNL     1      -2.220  47.777 -18.400  1.00  0.00     0.007 C 
HETATM    3  C11 UNL     1      -2.695  47.911 -19.865  1.00  0.00     0.015 C 
HETATM    4  C12 UNL     1      -1.707  48.899 -20.514  1.00  0.00    -0.013 C 
HETATM    5  C13 UNL     1      -0.456  48.069 -20.945  1.00  0.00     0.021 C 
HETATM    6  C14 UNL     1      -2.113  49.667 -21.763  1.00  0.00    -0.068 C 
HETATM    7  C15 UNL     1      -1.536  50.871 -22.029  1.00  0.00    -0.068 C 
HETATM    8  C16 UNL     1      -0.566  51.537 -21.050  1.00  0.00     0.036 C 
HETATM    9  C17 UNL     1      -0.316  50.828 -19.700  1.00  0.00     0.015 C 
HETATM   10  C18 UNL     1      -1.481  49.903 -19.328  1.00  0.00    -0.029 C 
HETATM   11  C19 UNL     1      -2.723  50.794 -19.021  1.00  0.00     0.016 C 
HETATM   12  C20 UNL     1      -1.927  51.649 -23.311  1.00  0.00    -0.016 C 
HETATM   13  C21 UNL     1      -3.203  52.439 -22.908  1.00  0.00     0.020 C 
HETATM   14  C22 UNL     1      -0.894  52.696 -23.816  1.00  0.00     0.017 C 
HETATM   15  C23 UNL     1       0.102  52.112 -24.804  1.00  0.00     0.039 C 
HETATM   16  C24 UNL     1      -0.567  51.624 -26.120  1.00  0.00     0.061 C 
HETATM   17  C25 UNL     1       0.405  50.609 -26.757  1.00  0.00     0.046 C 
HETATM   18  C26 UNL     1      -2.048  51.067 -25.901  1.00  0.00    -0.012 C 
HETATM   19  C27 UNL     1      -3.120  52.136 -26.220  1.00  0.00     0.018 C 
HETATM   20  C28 UNL     1      -2.354  49.911 -26.892  1.00  0.00     0.018 C 
HETATM   21  C29 UNL     1      -2.141  50.549 -24.424  1.00  0.00     0.009 C 
HETATM   22  C30 UNL     1      -3.341  49.669 -24.052  1.00  0.00     0.011 C 
HETATM   23  C31 UNL     1      -3.113  48.995 -22.688  1.00  0.00     0.036 C 
ENDROOT
BRANCH   1  24
HETATM   24  C7  UNL     1      -1.147  49.506 -16.704  1.00  0.00    -0.014 C 
HETATM   25  C8  UNL     1      -1.655  48.568 -15.600  1.00  0.00     0.010 C 
BRANCH  24  26
HETATM   26  C6  UNL     1       0.310  49.947 -16.396  1.00  0.00     0.008 C 
BRANCH  26  27
HETATM   27  C5  UNL     1       0.467  51.449 -16.135  1.00  0.00     0.028 C 
BRANCH  27  28
HETATM   28  C4  UNL     1       1.868  51.905 -16.443  1.00  0.00    -0.025 C 
HETATM   29  C2  UNL     1       2.931  51.934 -15.616  1.00  0.00    -0.091 C 
HETATM   30  C1  UNL     1       4.278  52.389 -16.115  1.00  0.00     0.042 C 
HETATM   31  C3  UNL     1       2.910  51.540 -14.164  1.00  0.00     0.042 C 
ENDBRANCH  27  28
ENDBRANCH  26  27
ENDBRANCH  24  26
ENDBRANCH   1  24
BRANCH  16  32
HETATM   32  O1  UNL     1      -0.626  52.737 -27.026  1.00  0.00    -0.389 OA
HETATM   33  H41 UNL     1       0.281  53.047 -27.188  1.00  0.00     0.210 HD
ENDBRANCH  16  32
TORSDOF 5
ENDMDL
