MODEL 1
REMARK minimizedAffinity -9.35953522
REMARK CNNscore 0.637317717
REMARK CNNaffinity 6.43529701
REMARK  14 active torsions:
REMARK  status: ('A' for Active; 'I' for Inactive)
REMARK    1  A    between atoms: C12_13  and  O2_14 
REMARK    2  A    between atoms: C19_21  and  O3_22 
REMARK    3  A    between atoms: C19_21  and  C20_23 
REMARK    4  A    between atoms: C20_23  and  C21_25 
REMARK    5  A    between atoms: C21_25  and  O5_26 
REMARK    6  A    between atoms: O5_26  and  C22_27 
REMARK    7  A    between atoms: C22_27  and  C23_29 
REMARK    8  A    between atoms: C23_29  and  C24_30 
REMARK    9  A    between atoms: C24_30  and  C25_31 
REMARK       I    between atoms: C25_31  and  N1_33 
REMARK   10  A    between atoms: N1_33  and  C26_34 
REMARK   11  A    between atoms: C26_34  and  C27_35 
REMARK   12  A    between atoms: C27_35  and  C28_36 
REMARK   13  A    between atoms: C31_39  and  O8_40 
REMARK   14  A    between atoms: C32_41  and  O9_42 
ROOT
HETATM    1  C1  UNL     1      -0.397  49.724 -21.223  1.00  0.00     0.025 C 
HETATM    2  C2  UNL     1      -0.983  51.138 -21.418  1.00  0.00     0.004 A 
HETATM    3  C3  UNL     1      -0.059  51.864 -22.396  1.00  0.00    -0.009 A 
HETATM    4  C4  UNL     1       0.706  52.927 -22.115  1.00  0.00     0.052 A 
HETATM    5  C5  UNL     1       0.706  53.527 -20.772  1.00  0.00     0.172 A 
HETATM    6  O1  UNL     1       1.426  54.479 -20.496  1.00  0.00    -0.289 OA
HETATM    7  C6  UNL     1      -0.214  52.946 -19.779  1.00  0.00     0.058 A 
HETATM    8  C7  UNL     1      -0.991  51.880 -20.055  1.00  0.00    -0.064 A 
HETATM    9  C8  UNL     1      -1.984  51.417 -19.017  1.00  0.00     0.036 C 
HETATM   10  C9  UNL     1      -3.401  51.419 -19.586  1.00  0.00     0.010 C 
HETATM   11  C10 UNL     1      -3.448  50.544 -20.836  1.00  0.00    -0.002 C 
HETATM   12  C11 UNL     1      -2.472  51.084 -21.937  1.00  0.00     0.035 C 
HETATM   13  C12 UNL     1      -2.819  50.478 -23.348  1.00  0.00     0.124 C 
HETATM   14  C13 UNL     1      -3.706  49.214 -23.384  1.00  0.00     0.045 C 
HETATM   15  C14 UNL     1      -4.882  49.156 -22.382  1.00  0.00     0.001 C 
HETATM   16  C15 UNL     1      -4.769  47.812 -21.599  1.00  0.00     0.019 C 
HETATM   17  C16 UNL     1      -4.824  50.413 -21.475  1.00  0.00     0.002 C 
HETATM   18  C17 UNL     1      -6.090  50.316 -20.647  1.00  0.00     0.009 C 
HETATM   19  C18 UNL     1      -7.129  49.812 -21.669  1.00  0.00     0.047 C 
HETATM   20  C19 UNL     1      -6.336  49.312 -22.925  1.00  0.00     0.128 C 
ENDROOT
BRANCH  20  21
HETATM   21  O3  UNL     1      -6.355  50.342 -23.918  1.00  0.00    -0.381 OA
HETATM   22  H25 UNL     1      -7.281  50.623 -24.041  1.00  0.00     0.211 HD
ENDBRANCH  20  21
BRANCH  20  23
HETATM   23  C20 UNL     1      -6.962  48.033 -23.537  1.00  0.00     0.185 C 
HETATM   24  O4  UNL     1      -7.259  47.060 -22.839  1.00  0.00    -0.292 OA
BRANCH  23  25
HETATM   25  C21 UNL     1      -7.207  48.038 -25.043  1.00  0.00     0.260 C 
BRANCH  25  26
HETATM   26  O5  UNL     1      -8.499  47.497 -25.332  1.00  0.00    -0.314 OA
BRANCH  26  27
HETATM   27  C22 UNL     1      -8.798  47.455 -26.657  1.00  0.00     0.259 C 
HETATM   28  O6  UNL     1      -8.142  47.997 -27.537  1.00  0.00    -0.265 OA
BRANCH  27  29
HETATM   29  C23 UNL     1     -10.062  46.674 -26.896  1.00  0.00     0.120 C 
BRANCH  29  30
HETATM   30  C24 UNL     1     -10.939  46.662 -25.653  1.00  0.00     0.112 C 
BRANCH  30  31
HETATM   31  C25 UNL     1     -12.319  47.214 -25.931  1.00  0.00     0.218 C 
HETATM   32  O7  UNL     1     -12.526  48.250 -26.552  1.00  0.00    -0.274 OA
HETATM   33  N1  UNL     1     -13.324  46.422 -25.419  1.00  0.00    -0.361 N 
HETATM   34  H32 UNL     1     -13.088  45.566 -24.934  1.00  0.00     0.162 HD
BRANCH  33  35
HETATM   35  C26 UNL     1     -14.725  46.762 -25.581  1.00  0.00     0.127 C 
BRANCH  35  36
HETATM   36  C27 UNL     1     -15.340  47.304 -24.288  1.00  0.00     0.058 C 
BRANCH  36  37
HETATM   37  C28 UNL     1     -16.653  46.631 -23.974  1.00  0.00    -0.054 A 
HETATM   38  C29 UNL     1     -16.744  45.708 -22.918  1.00  0.00     0.010 A 
HETATM   39  C30 UNL     1     -17.963  45.102 -22.607  1.00  0.00     0.040 A 
HETATM   40  C31 UNL     1     -19.088  45.424 -23.352  1.00  0.00     0.098 A 
HETATM   41  C32 UNL     1     -19.013  46.337 -24.399  1.00  0.00     0.099 A 
HETATM   42  C33 UNL     1     -17.804  46.946 -24.716  1.00  0.00     0.046 A 
BRANCH  40  43
HETATM   43  O8  UNL     1     -20.281  44.833 -23.047  1.00  0.00    -0.358 OA
HETATM   44  H39 UNL     1     -20.907  45.200 -23.701  1.00  0.00     0.217 HD
ENDBRANCH  40  43
BRANCH  41  45
HETATM   45  O9  UNL     1     -20.161  46.608 -25.090  1.00  0.00    -0.358 OA
HETATM   46  H40 UNL     1     -19.948  47.252 -25.787  1.00  0.00     0.217 HD
ENDBRANCH  41  45
ENDBRANCH  36  37
ENDBRANCH  35  36
ENDBRANCH  33  35
ENDBRANCH  30  31
ENDBRANCH  29  30
ENDBRANCH  27  29
ENDBRANCH  26  27
ENDBRANCH  25  26
ENDBRANCH  23  25
ENDBRANCH  20  23
BRANCH  13  47
HETATM   47  O2  UNL     1      -1.673  50.204 -24.145  1.00  0.00    -0.395 OA
HETATM   48  H14 UNL     1      -1.980  50.007 -25.048  1.00  0.00     0.210 HD
ENDBRANCH  13  47
TORSDOF 14
ENDMDL
