MODEL 1
REMARK minimizedAffinity -8.2293663
REMARK CNNscore 0.479699671
REMARK CNNaffinity 7.30358315
REMARK  9 active torsions:
REMARK  status: ('A' for Active; 'I' for Inactive)
REMARK       I    between atoms: N1_1  and  C1_2 
REMARK       I    between atoms: C1_2  and  N2_3 
REMARK    1  A    between atoms: N3_4  and  C2_6 
REMARK    2  A    between atoms: C2_6  and  C3_7 
REMARK    3  A    between atoms: C3_7  and  C4_8 
REMARK    4  A    between atoms: C4_8  and  C5_9 
REMARK    5  A    between atoms: C5_9  and  O1_10 
REMARK    6  A    between atoms: C14_20  and  S1_21 
REMARK    7  A    between atoms: C23_33  and  C24_34 
REMARK    8  A    between atoms: C24_34  and  O6_35 
REMARK    9  A    between atoms: C30_41  and  O7_42 
ROOT
HETATM    1  C2  UNL     1      -8.926  46.049 -31.032  1.00  0.00     0.170 C 
HETATM    2  O2  UNL     1      -9.997  46.182 -32.047  1.00  0.00    -0.316 OA
HETATM    3  C6  UNL     1     -10.206  45.119 -32.881  1.00  0.00     0.072 C 
HETATM    4  C7  UNL     1     -10.758  43.926 -32.429  1.00  0.00     0.037 C 
HETATM    5  C8  UNL     1     -10.700  42.797 -33.244  1.00  0.00     0.010 C 
HETATM    6  C9  UNL     1     -10.102  42.861 -34.511  1.00  0.00    -0.058 C 
HETATM    7  C10 UNL     1      -9.697  44.106 -35.009  1.00  0.00     0.010 C 
HETATM    8  C11 UNL     1      -9.774  45.241 -34.202  1.00  0.00     0.037 C 
HETATM    9  C12 UNL     1      -9.806  41.596 -35.279  1.00  0.00     0.040 C 
HETATM   10  C13 UNL     1      -8.373  41.071 -35.051  1.00  0.00     0.029 C 
HETATM   11  C14 UNL     1      -8.004  40.595 -33.623  1.00  0.00     0.152 C 
HETATM   12  C15 UNL     1      -6.461  40.350 -33.416  1.00  0.00     0.107 C 
HETATM   13  C16 UNL     1      -5.793  39.656 -34.589  1.00  0.00     0.001 C 
HETATM   14  C17 UNL     1      -4.829  40.249 -35.316  1.00  0.00    -0.036 C 
HETATM   15  C18 UNL     1      -4.569  41.706 -35.144  1.00  0.00     0.133 C 
HETATM   16  C19 UNL     1      -4.275  41.881 -33.673  1.00  0.00     0.015 C 
HETATM   17  C20 UNL     1      -2.967  41.125 -33.290  1.00  0.00     0.039 C 
HETATM   18  C21 UNL     1      -2.709  39.639 -33.720  1.00  0.00     0.123 C 
HETATM   19  C22 UNL     1      -1.372  39.249 -33.016  1.00  0.00     0.039 C 
HETATM   20  C23 UNL     1      -0.722  37.885 -33.347  1.00  0.00     0.023 C 
HETATM   21  C25 UNL     1      -1.636  36.691 -33.012  1.00  0.00     0.101 C 
HETATM   22  C26 UNL     1      -2.582  36.509 -34.110  1.00  0.00    -0.101 C 
HETATM   23  C27 UNL     1      -3.263  36.605 -35.091  1.00  0.00    -0.066 C 
HETATM   24  C28 UNL     1      -3.974  36.901 -36.286  1.00  0.00     0.029 A 
HETATM   25  C29 UNL     1      -4.483  35.818 -37.019  1.00  0.00     0.057 A 
HETATM   26  C30 UNL     1      -5.209  36.040 -38.181  1.00  0.00     0.067 A 
HETATM   27  C31 UNL     1      -5.425  37.329 -38.642  1.00  0.00     0.037 A 
HETATM   28  C32 UNL     1      -4.909  38.407 -37.920  1.00  0.00     0.014 A 
HETATM   29  C33 UNL     1      -4.167  38.222 -36.726  1.00  0.00    -0.006 A 
HETATM   30  C34 UNL     1      -3.719  39.496 -35.997  1.00  0.00     0.186 C 
HETATM   31  O8  UNL     1      -2.541  39.452 -35.146  1.00  0.00    -0.371 OA
HETATM   32  C35 UNL     1      -5.547  41.516 -32.813  1.00  0.00     0.046 C 
HETATM   33  C36 UNL     1      -6.307  42.743 -32.303  1.00  0.00    -0.052 A 
HETATM   34  C37 UNL     1      -6.338  43.966 -32.981  1.00  0.00     0.008 A 
HETATM   35  C38 UNL     1      -7.096  45.039 -32.499  1.00  0.00     0.012 A 
HETATM   36  C39 UNL     1      -7.918  44.906 -31.365  1.00  0.00    -0.003 A 
HETATM   37  C40 UNL     1      -7.841  43.698 -30.653  1.00  0.00     0.012 A 
HETATM   38  C41 UNL     1      -7.039  42.642 -31.109  1.00  0.00     0.008 A 
HETATM   39 NA1  UNL     1      -6.294  41.820 -33.204  1.00  0.00    -0.237 Na
ENDROOT
BRANCH   1  40
HETATM   40  N3  UNL     1      -8.200  47.338 -30.909  1.00  0.00    -0.336 N 
HETATM   41  C1  UNL     1      -8.729  48.459 -30.619  1.00  0.00     0.124 C 
HETATM   42  N1  UNL     1      -7.936  49.556 -30.567  1.00  0.00    -0.279 NA
HETATM   43  N2  UNL     1      -9.992  48.821 -30.318  1.00  0.00    -0.279 NA
HETATM   44  H1  UNL     1      -6.961  49.273 -30.613  1.00  0.00     0.126 HD
HETATM   45  H2  UNL     1      -8.108  50.099 -29.729  1.00  0.00     0.126 HD
HETATM   46  H3  UNL     1     -10.700  48.104 -30.423  1.00  0.00     0.126 HD
HETATM   47  H4  UNL     1     -10.275  49.694 -30.754  1.00  0.00     0.126 HD
ATOM     48  H3  UNL     1      -7.193  47.325 -31.071  1.00  0.00     0.165 HD
ENDBRANCH   1  40
BRANCH   1  49
HETATM   49  C3  UNL     1      -9.696  45.848 -29.681  1.00  0.00     0.069 C 
BRANCH  49  50
HETATM   50  C4  UNL     1     -11.187  45.483 -29.785  1.00  0.00     0.031 C 
BRANCH  50  51
HETATM   51  C5  UNL     1     -12.130  46.304 -28.920  1.00  0.00     0.164 C 
BRANCH  51  52
HETATM   52  O1  UNL     1     -13.256  46.708 -29.702  1.00  0.00    -0.401 OA
HETATM   53  H11 UNL     1     -12.904  47.252 -30.428  1.00  0.00     0.209 HD
ENDBRANCH  51  52
ENDBRANCH  50  51
ENDBRANCH  49  50
ENDBRANCH   1  49
BRANCH  11  54
HETATM   54  S1  UNL     1      -8.920  39.086 -33.142  1.00  0.00     0.108 S 
HETATM   55  O3  UNL     1      -8.031  38.383 -32.221  1.00  0.00    -0.595 OA
HETATM   56  O4  UNL     1      -9.109  38.376 -34.407  1.00  0.00    -0.595 OA
HETATM   57  O5  UNL     1     -10.146  39.590 -32.529  1.00  0.00    -0.595 OA
ENDBRANCH  11  54
BRANCH  20  58
HETATM   58  C24 UNL     1       0.613  37.746 -32.600  1.00  0.00     0.169 C 
BRANCH  58  59
HETATM   59  O6  UNL     1       0.856  36.395 -32.229  1.00  0.00    -0.400 OA
HETATM   60  H34 UNL     1       1.678  36.387 -31.711  1.00  0.00     0.209 HD
ENDBRANCH  58  59
ENDBRANCH  20  58
BRANCH  26  61
HETATM   61  O7  UNL     1      -5.707  34.959 -38.846  1.00  0.00    -0.361 OA
HETATM   62  H38 UNL     1      -6.425  35.275 -39.422  1.00  0.00     0.217 HD
ENDBRANCH  26  61
TORSDOF 9
ENDMDL
