MODEL 1
REMARK minimizedAffinity -10.077713
REMARK  4 active torsions:
REMARK  status: ('A' for Active; 'I' for Inactive)
REMARK    1  A    between atoms: C2_2  and  C4_4 
REMARK    2  A    between atoms: C4_4  and  C5_5 
REMARK    3  A    between atoms: C5_5  and  O1_6 
REMARK    4  A    between atoms: C8_9  and  C9_10 
ROOT
HETATM    1  C9  UNL     1      -1.624  50.687 -23.438  1.00  0.00     0.001 C 
HETATM    2  C10 UNL     1      -1.400  51.340 -22.049  1.00  0.00     0.007 C 
HETATM    3  C11 UNL     1      -2.659  51.056 -21.210  1.00  0.00     0.011 C 
HETATM    4  C12 UNL     1      -3.421  49.960 -21.979  1.00  0.00    -0.032 C 
HETATM    5  C13 UNL     1      -2.778  48.598 -21.565  1.00  0.00     0.016 C 
HETATM    6  C14 UNL     1      -4.949  49.935 -21.720  1.00  0.00     0.004 C 
HETATM    7  C15 UNL     1      -5.333  49.452 -20.316  1.00  0.00     0.007 C 
HETATM    8  C16 UNL     1      -6.839  49.574 -20.127  1.00  0.00     0.007 C 
HETATM    9  C17 UNL     1      -7.609  48.534 -20.968  1.00  0.00     0.010 C 
HETATM   10  C18 UNL     1      -7.725  47.097 -20.317  1.00  0.00     0.018 C 
HETATM   11  C19 UNL     1      -9.181  46.579 -20.406  1.00  0.00     0.023 C 
HETATM   12  C20 UNL     1      -7.367  47.042 -18.814  1.00  0.00     0.023 C 
HETATM   13  C21 UNL     1      -6.830  46.105 -21.072  1.00  0.00     0.135 C 
HETATM   14  O2  UNL     1      -6.034  45.362 -20.493  1.00  0.00    -0.297 OA
HETATM   15  C22 UNL     1      -6.999  45.990 -22.571  1.00  0.00     0.080 C 
HETATM   16  C23 UNL     1      -7.555  47.262 -23.185  1.00  0.00     0.018 C 
HETATM   17  C24 UNL     1      -7.077  48.485 -22.430  1.00  0.00    -0.026 A 
HETATM   18  C25 UNL     1      -7.065  49.770 -23.218  1.00  0.00     0.021 A 
HETATM   19  C26 UNL     1      -5.727  49.166 -22.816  1.00  0.00    -0.027 A 
HETATM   20  C27 UNL     1      -4.899  48.536 -23.947  1.00  0.00     0.011 C 
HETATM   21  C28 UNL     1      -3.600  49.241 -24.380  1.00  0.00     0.011 C 
HETATM   22  C29 UNL     1      -3.158  50.391 -23.468  1.00  0.00    -0.032 C 
HETATM   23  C30 UNL     1      -3.943  51.657 -23.905  1.00  0.00     0.016 C 
ENDROOT
BRANCH   1  24
HETATM   24  C8  UNL     1      -0.884  51.411 -24.594  1.00  0.00     0.014 C 
HETATM   25  C7  UNL     1       0.293  52.323 -24.209  1.00  0.00     0.010 C 
HETATM   26  C6  UNL     1       0.372  53.563 -25.097  1.00  0.00     0.041 C 
HETATM   27  C4  UNL     1       0.100  53.256 -26.591  1.00  0.00     0.085 C 
HETATM   28  O3  UNL     1      -1.132  52.511 -26.760  1.00  0.00    -0.377 OA
HETATM   29  C31 UNL     1      -1.820  52.122 -25.573  1.00  0.00     0.174 C 
BRANCH  27  30
HETATM   30  C2  UNL     1       1.231  52.369 -27.228  1.00  0.00     0.014 C 
HETATM   31  C1  UNL     1       0.775  51.414 -28.335  1.00  0.00     0.012 C 
HETATM   32  C3  UNL     1       2.029  51.571 -26.182  1.00  0.00     0.012 C 
ENDBRANCH  27  30
BRANCH  27  33
HETATM   33  C5  UNL     1      -0.122  54.594 -27.348  1.00  0.00     0.202 C 
BRANCH  33  34
HETATM   34  O1  UNL     1       0.189  55.750 -26.581  1.00  0.00    -0.398 OA
HETATM   35  H10 UNL     1      -0.535  55.888 -25.949  1.00  0.00     0.209 HD
ENDBRANCH  33  34
ENDBRANCH  27  33
ENDBRANCH   1  24
TORSDOF 4
ENDMDL
