MODEL 1
REMARK minimizedAffinity -8.8289566
REMARK  12 active torsions:
REMARK  status: ('A' for Active; 'I' for Inactive)
REMARK    1  A    between atoms: C2_2  and  C17_19 
REMARK    2  A    between atoms: C3_3  and  C4_4 
REMARK    3  A    between atoms: C4_4  and  C5_5 
REMARK    4  A    between atoms: C5_5  and  C6_6 
REMARK    5  A    between atoms: C12_12  and  O1_13 
REMARK    6  A    between atoms: C17_19  and  C18_20 
REMARK    7  A    between atoms: C19_21  and  C20_22 
REMARK    8  A    between atoms: C20_22  and  C22_24 
REMARK    9  A    between atoms: C22_24  and  C23_26 
REMARK   10  A    between atoms: C23_26  and  O4_27 
REMARK   11  A    between atoms: C23_26  and  C24_28 
REMARK   12  A    between atoms: C24_28  and  C25_29 
ROOT
HETATM    1  C1  UNL     1      -6.367  49.452 -20.860  1.00  0.00     0.043 C 
HETATM    2  C2  UNL     1      -5.093  49.842 -21.564  1.00  0.00    -0.084 C 
HETATM    3  C3  UNL     1      -4.037  50.413 -20.944  1.00  0.00    -0.024 C 
ENDROOT
BRANCH   3   4
HETATM    4  C4  UNL     1      -3.887  50.664 -19.471  1.00  0.00     0.030 C 
BRANCH   4   5
HETATM    5  C5  UNL     1      -2.564  51.291 -19.025  1.00  0.00     0.042 C 
BRANCH   5   6
HETATM    6  C6  UNL     1      -1.254  50.476 -19.207  1.00  0.00     0.065 C 
HETATM    7  C7  UNL     1      -1.524  48.967 -19.062  1.00  0.00     0.046 C 
HETATM    8  C8  UNL     1      -0.106  50.861 -18.265  1.00  0.00     0.043 C 
HETATM    9  C9  UNL     1       0.326  52.303 -18.490  1.00  0.00     0.044 C 
HETATM   10  C10 UNL     1       0.461  52.591 -19.955  1.00  0.00    -0.021 A 
HETATM   11  C11 UNL     1       1.150  53.740 -20.371  1.00  0.00     0.046 A 
HETATM   12  C16 UNL     1      -0.120  51.749 -20.916  1.00  0.00     0.082 A 
HETATM   13  C12 UNL     1       1.273  54.017 -21.725  1.00  0.00     0.066 A 
HETATM   14  C13 UNL     1       0.725  53.172 -22.682  1.00  0.00     0.046 A 
HETATM   15  C14 UNL     1       0.025  52.023 -22.285  1.00  0.00    -0.025 A 
HETATM   16  C15 UNL     1      -0.574  51.115 -23.319  1.00  0.00     0.051 C 
HETATM   17  O2  UNL     1      -0.839  50.627 -20.588  1.00  0.00    -0.340 OA
BRANCH  13  18
HETATM   18  O1  UNL     1       1.922  55.135 -22.168  1.00  0.00    -0.361 OA
HETATM   19  H17 UNL     1       2.220  55.649 -21.396  1.00  0.00     0.217 HD
ENDBRANCH  13  18
ENDBRANCH   5   6
ENDBRANCH   4   5
ENDBRANCH   3   4
BRANCH   2  20
HETATM   20  C17 UNL     1      -5.069  49.567 -23.058  1.00  0.00     0.060 C 
BRANCH  20  21
HETATM   21  C18 UNL     1      -3.777  48.918 -23.478  1.00  0.00    -0.026 C 
HETATM   22  C19 UNL     1      -3.236  48.854 -24.706  1.00  0.00    -0.019 C 
BRANCH  22  23
HETATM   23  C20 UNL     1      -3.795  49.413 -25.992  1.00  0.00     0.076 C 
HETATM   24  C21 UNL     1      -3.397  48.570 -27.197  1.00  0.00     0.022 C 
BRANCH  23  25
HETATM   25  C22 UNL     1      -3.383  50.881 -26.163  1.00  0.00     0.162 C 
HETATM   26  O3  UNL     1      -3.825  51.748 -25.399  1.00  0.00    -0.294 OA
BRANCH  25  27
HETATM   27  C23 UNL     1      -2.393  51.244 -27.280  1.00  0.00     0.188 C 
BRANCH  27  28
HETATM   28  O4  UNL     1      -2.785  50.676 -28.526  1.00  0.00    -0.388 OA
HETATM   29  H31 UNL     1      -2.546  49.724 -28.511  1.00  0.00     0.210 HD
ENDBRANCH  27  28
BRANCH  27  30
HETATM   30  C24 UNL     1      -0.927  50.908 -26.957  1.00  0.00     0.043 C 
BRANCH  30  31
HETATM   31  C25 UNL     1       0.086  52.064 -26.800  1.00  0.00    -0.020 C 
HETATM   32  C26 UNL     1      -0.147  53.086 -27.918  1.00  0.00     0.009 C 
HETATM   33  C27 UNL     1       1.551  51.624 -26.831  1.00  0.00     0.009 C 
ENDBRANCH  30  31
ENDBRANCH  27  30
ENDBRANCH  25  27
ENDBRANCH  23  25
ENDBRANCH  22  23
ENDBRANCH  20  21
ENDBRANCH   2  20
TORSDOF 12
ENDMDL
