MODEL 1
REMARK minimizedAffinity -9.67335129
REMARK  3 active torsions:
REMARK  status: ('A' for Active; 'I' for Inactive)
REMARK    1  A    between atoms: C2_2  and  O1_3 
REMARK    2  A    between atoms: O1_3  and  C3_4 
REMARK    3  A    between atoms: C3_4  and  C4_6 
ROOT
HETATM    1  C4  UNL     1      -7.609  46.850 -22.828  1.00  0.00     0.045 C 
HETATM    2  C5  UNL     1      -9.046  47.266 -22.466  1.00  0.00     0.026 C 
HETATM    3  C6  UNL     1      -6.918  46.141 -21.635  1.00  0.00     0.020 C 
HETATM    4  C7  UNL     1      -6.077  47.094 -20.785  1.00  0.00     0.011 C 
HETATM    5  C8  UNL     1      -4.911  47.741 -21.588  1.00  0.00    -0.036 C 
HETATM    6  C9  UNL     1      -3.675  46.807 -21.509  1.00  0.00     0.016 C 
HETATM    7  C10 UNL     1      -4.548  49.085 -20.910  1.00  0.00     0.011 C 
HETATM    8  C11 UNL     1      -3.634  50.001 -21.743  1.00  0.00     0.015 C 
HETATM    9  C12 UNL     1      -4.158  50.312 -23.181  1.00  0.00    -0.013 C 
HETATM   10  C13 UNL     1      -5.494  51.099 -23.066  1.00  0.00     0.021 C 
HETATM   11  C14 UNL     1      -4.416  48.937 -23.803  1.00  0.00    -0.070 C 
HETATM   12  C15 UNL     1      -3.735  48.504 -24.874  1.00  0.00    -0.022 C 
HETATM   13  C16 UNL     1      -2.597  49.212 -25.512  1.00  0.00     0.033 C 
HETATM   14  C17 UNL     1      -1.949  50.354 -24.667  1.00  0.00     0.007 C 
HETATM   15  C18 UNL     1      -0.856  51.133 -25.559  1.00  0.00    -0.034 C 
HETATM   16  C19 UNL     1      -0.004  50.020 -26.271  1.00  0.00     0.016 C 
HETATM   17  C20 UNL     1       0.174  51.919 -24.689  1.00  0.00     0.017 C 
HETATM   18  C21 UNL     1       0.370  53.416 -24.927  1.00  0.00     0.080 C 
HETATM   19  C22 UNL     1       0.001  53.994 -26.274  1.00  0.00     0.135 C 
HETATM   20  O3  UNL     1       0.205  55.191 -26.494  1.00  0.00    -0.297 OA
HETATM   21  C23 UNL     1      -0.592  53.078 -27.338  1.00  0.00     0.017 C 
HETATM   22  C24 UNL     1       0.592  52.454 -28.097  1.00  0.00     0.023 C 
HETATM   23  C25 UNL     1      -1.374  53.925 -28.371  1.00  0.00     0.023 C 
HETATM   24  C26 UNL     1      -1.550  52.044 -26.633  1.00  0.00     0.009 C 
HETATM   25  C27 UNL     1      -2.811  52.773 -26.092  1.00  0.00     0.007 C 
HETATM   26  C28 UNL     1      -3.770  51.962 -25.218  1.00  0.00     0.011 C 
HETATM   27  C29 UNL     1      -3.089  51.231 -24.030  1.00  0.00    -0.028 C 
HETATM   28  C30 UNL     1      -2.525  52.309 -23.070  1.00  0.00     0.016 C 
HETATM   29  C31 UNL     1      -5.311  47.925 -23.084  1.00  0.00     0.024 C 
HETATM   30  C32 UNL     1      -6.825  48.126 -23.258  1.00  0.00     0.029 C 
ENDROOT
BRANCH   1  31
HETATM   31  C3  UNL     1      -7.693  45.862 -24.002  1.00  0.00     0.267 C 
HETATM   32  O2  UNL     1      -7.888  44.658 -23.903  1.00  0.00    -0.264 OA
BRANCH  31  33
HETATM   33  O1  UNL     1      -7.529  46.518 -25.187  1.00  0.00    -0.321 OA
BRANCH  33  34
HETATM   34  C2  UNL     1      -8.670  46.480 -26.051  1.00  0.00     0.174 C 
HETATM   35  C1  UNL     1      -8.185  46.242 -27.468  1.00  0.00     0.034 C 
ENDBRANCH  33  34
ENDBRANCH  31  33
ENDBRANCH   1  31
TORSDOF 3
ENDMDL
