MODEL 1
REMARK minimizedAffinity -6.10816431
REMARK CNNscore 0.594158292
REMARK CNNaffinity 6.6817584
REMARK  8 active torsions:
REMARK  status: ('A' for Active; 'I' for Inactive)
REMARK    1  A    between atoms: N1_2  and  C2_3 
REMARK    2  A    between atoms: C2_3  and  C3_4 
REMARK    3  A    between atoms: C5_6  and  O1_7 
REMARK    4  A    between atoms: C20_22  and  N2_23 
REMARK    5  A    between atoms: C20_22  and  C21_24 
REMARK    6  A    between atoms: C21_24  and  C22_25 
REMARK    7  A    between atoms: C22_25  and  O2_26 
REMARK    8  A    between atoms: C27_31  and  C29_33 
ROOT
HETATM    1  C3  UNL     1      -8.969  -6.951  -4.439  1.00  0.00    -0.021 A 
HETATM    2  C4  UNL     1      -8.678  -7.304  -5.771  1.00  0.00     0.045 A 
HETATM    3  C5  UNL     1      -8.069  -8.507  -6.065  1.00  0.00     0.066 A 
HETATM    4  C6  UNL     1      -7.747  -9.394  -5.050  1.00  0.00     0.045 A 
HETATM    5  C7  UNL     1      -8.019  -9.098  -3.689  1.00  0.00    -0.037 A 
HETATM    6  C8  UNL     1      -8.640  -7.847  -3.373  1.00  0.00    -0.042 A 
HETATM    7  C9  UNL     1      -8.951  -7.425  -1.945  1.00  0.00     0.044 C 
HETATM    8  C10 UNL     1     -10.336  -7.778  -1.340  1.00  0.00    -0.010 C 
HETATM    9  C11 UNL     1     -11.054  -8.981  -1.971  1.00  0.00     0.005 C 
HETATM   10  C12 UNL     1     -11.907  -9.752  -0.980  1.00  0.00     0.001 C 
HETATM   11  C13 UNL     1     -11.006 -10.265   0.132  1.00  0.00     0.007 C 
HETATM   12  C14 UNL     1     -10.419  -9.113   0.971  1.00  0.00     0.022 C 
HETATM   13  C15 UNL     1     -10.307  -7.765   0.214  1.00  0.00     0.012 C 
HETATM   14  C16 UNL     1      -9.181  -9.535   1.859  1.00  0.00     0.082 C 
HETATM   15  C17 UNL     1      -9.259  -8.788   3.220  1.00  0.00     0.040 C 
HETATM   16  C18 UNL     1      -8.169  -9.284   4.174  1.00  0.00     0.013 C 
HETATM   17  C19 UNL     1      -7.347 -10.397   3.461  1.00  0.00     0.060 C 
HETATM   18  C20 UNL     1      -6.621  -9.719   2.223  1.00  0.00     0.180 C 
HETATM   19  C23 UNL     1      -7.759  -9.277   1.233  1.00  0.00     0.139 C 
HETATM   20  C24 UNL     1      -7.647  -9.831  -0.130  1.00  0.00    -0.096 C 
HETATM   21  C25 UNL     1      -7.626 -10.068  -1.308  1.00  0.00    -0.101 C 
HETATM   22  C26 UNL     1      -7.673 -10.266  -2.757  1.00  0.00     0.133 C 
HETATM   23  C27 UNL     1      -8.370 -11.521   3.038  1.00  0.00     0.068 C 
HETATM   24  C28 UNL     1      -7.710 -12.676   2.268  1.00  0.00     0.047 C 
HETATM   25  O3  UNL     1      -9.346 -10.948   2.148  1.00  0.00    -0.367 OA
ENDROOT
BRANCH  18  26
HETATM   26  N2  UNL     1      -5.943  -8.497   2.758  1.00  0.00     0.090 N 
HETATM   27  H27 UNL     1      -5.270  -8.783   3.472  1.00  0.00     0.313 HD
HETATM   28  H28 UNL     1      -5.331  -8.108   2.030  1.00  0.00     0.313 HD
ENDBRANCH  18  26
BRANCH  18  29
HETATM   29  C21 UNL     1      -5.462 -10.591   1.628  1.00  0.00     0.069 C 
BRANCH  29  30
HETATM   30  C22 UNL     1      -4.027 -10.285   2.092  1.00  0.00     0.166 C 
BRANCH  30  31
HETATM   31  O2  UNL     1      -3.863 -10.586   3.474  1.00  0.00    -0.401 OA
HETATM   32  H33 UNL     1      -2.919 -10.464   3.679  1.00  0.00     0.209 HD
ENDBRANCH  30  31
ENDBRANCH  29  30
ENDBRANCH  18  29
BRANCH  23  33
HETATM   33  C29 UNL     1      -9.175 -12.091   4.254  1.00  0.00     0.020 C 
HETATM   34  C30 UNL     1     -10.684 -11.809   4.241  1.00  0.00     0.007 C 
HETATM   35  C31 UNL     1     -11.118 -11.755   5.709  1.00  0.00     0.000 C 
HETATM   36  C32 UNL     1      -9.887 -12.124   6.528  1.00  0.00     0.000 C 
HETATM   37  C33 UNL     1      -8.723 -11.666   5.661  1.00  0.00     0.007 C 
ENDBRANCH  23  33
BRANCH   3  38
HETATM   38  O1  UNL     1      -7.812  -8.789  -7.373  1.00  0.00    -0.361 OA
HETATM   39  H8  UNL     1      -7.408  -9.670  -7.428  1.00  0.00     0.217 HD
ENDBRANCH   3  38
BRANCH   1  40
HETATM   40  C2  UNL     1      -9.668  -5.614  -4.242  1.00  0.00     0.308 C 
BRANCH  40  41
HETATM   41  N1  UNL     1      -8.726  -4.507  -4.390  1.00  0.00     0.083 N 
HETATM   42  C1  UNL     1      -9.323  -3.399  -5.116  1.00  0.00     0.307 C 
HETATM   43  H4  UNL     1      -8.436  -4.198  -3.462  1.00  0.00     0.315 HD
ENDBRANCH  40  41
ENDBRANCH   1  40
TORSDOF 8
ENDMDL
