MODEL 1
REMARK minimizedAffinity -7.00222826
REMARK CNNscore 0.666545033
REMARK CNNaffinity 7.08967543
REMARK  4 active torsions:
REMARK  status: ('A' for Active; 'I' for Inactive)
REMARK    1  A    between atoms: C2_2  and  C3_3 
REMARK    2  A    between atoms: C2_2  and  C9_9 
REMARK    3  A    between atoms: C3_3  and  C4_4 
REMARK    4  A    between atoms: C4_4  and  C5_5 
ROOT
HETATM    1  C9  UNL     1       1.927  53.708 -11.051  1.00  0.00     0.018 C 
HETATM    2  C10 UNL     1       0.808  54.762 -10.852  1.00  0.00     0.010 C 
HETATM    3  C11 UNL     1       1.158  55.535  -9.560  1.00  0.00     0.011 C 
HETATM    4  C12 UNL     1       2.677  55.323  -9.363  1.00  0.00    -0.032 C 
HETATM    5  C13 UNL     1       3.387  56.263 -10.395  1.00  0.00     0.016 C 
HETATM    6  C14 UNL     1       2.767  53.827  -9.765  1.00  0.00     0.002 C 
HETATM    7  C15 UNL     1       4.202  53.323  -9.809  1.00  0.00     0.006 C 
HETATM    8  C16 UNL     1       4.874  53.518  -8.439  1.00  0.00     0.006 C 
HETATM    9  C17 UNL     1       4.772  54.975  -7.907  1.00  0.00     0.003 C 
HETATM   10  C18 UNL     1       5.660  55.277  -6.625  1.00  0.00    -0.035 C 
HETATM   11  C19 UNL     1       5.332  54.339  -5.442  1.00  0.00     0.016 C 
HETATM   12  C20 UNL     1       7.162  55.010  -6.998  1.00  0.00     0.017 C 
HETATM   13  C21 UNL     1       8.187  55.920  -6.329  1.00  0.00     0.080 C 
HETATM   14  C22 UNL     1       7.700  56.463  -5.010  1.00  0.00     0.135 C 
HETATM   15  O1  UNL     1       8.372  56.322  -3.988  1.00  0.00    -0.297 OA
HETATM   16  C23 UNL     1       6.394  57.265  -5.035  1.00  0.00     0.017 C 
HETATM   17  C24 UNL     1       6.793  58.746  -5.215  1.00  0.00     0.023 C 
HETATM   18  C25 UNL     1       5.697  57.141  -3.666  1.00  0.00     0.023 C 
HETATM   19  C26 UNL     1       5.516  56.800  -6.253  1.00  0.00     0.009 C 
HETATM   20  C27 UNL     1       4.046  57.250  -6.151  1.00  0.00     0.007 C 
HETATM   21  C28 UNL     1       3.274  56.986  -7.447  1.00  0.00     0.011 C 
HETATM   22  C29 UNL     1       3.275  55.499  -7.885  1.00  0.00    -0.032 C 
HETATM   23  C30 UNL     1       2.405  54.721  -6.854  1.00  0.00     0.016 C 
ENDROOT
BRANCH   1  24
HETATM   24  C2  UNL     1       1.440  52.299 -11.391  1.00  0.00    -0.084 C 
HETATM   25  C1  UNL     1       1.440  51.360 -10.425  1.00  0.00     0.014 C 
BRANCH  24  26
HETATM   26  C3  UNL     1       0.989  52.031 -12.824  1.00  0.00     0.037 C 
BRANCH  26  27
HETATM   27  C4  UNL     1       1.716  50.953 -13.654  1.00  0.00     0.031 C 
BRANCH  27  28
HETATM   28  C5  UNL     1       2.952  51.464 -14.352  1.00  0.00    -0.024 C 
HETATM   29  C6  UNL     1       3.036  51.997 -15.586  1.00  0.00    -0.091 C 
HETATM   30  C7  UNL     1       4.361  52.472 -16.127  1.00  0.00     0.042 C 
HETATM   31  C8  UNL     1       1.886  52.169 -16.539  1.00  0.00     0.042 C 
ENDBRANCH  27  28
ENDBRANCH  26  27
ENDBRANCH  24  26
ENDBRANCH   1  24
TORSDOF 4
ENDMDL
