MODEL 1
REMARK minimizedAffinity -11.6261272
REMARK  5 active torsions:
REMARK  status: ('A' for Active; 'I' for Inactive)
REMARK    1  A    between atoms: N1_2  and  C2_3 
REMARK    2  A    between atoms: C4_5  and  N3_29 
REMARK    3  A    between atoms: C5_7  and  N2_12 
REMARK    4  A    between atoms: C7_9  and  O2_10 
REMARK    5  A    between atoms: C28_35  and  O4_36 
ROOT
HETATM    1  C2  UNL     1      -4.252  49.142 -20.189  1.00  0.00     0.257 C 
HETATM    2  C3  UNL     1      -3.118  49.632 -21.177  1.00  0.00     0.092 C 
HETATM    3  C4  UNL     1      -3.665  49.318 -22.537  1.00  0.00     0.234 C 
HETATM    4  O1  UNL     1      -4.957  49.929 -22.548  1.00  0.00    -0.333 OA
HETATM    5  C5  UNL     1      -5.947  48.947 -22.197  1.00  0.00     0.168 C 
HETATM    6  C6  UNL     1      -7.207  49.798 -21.959  1.00  0.00     0.074 C 
HETATM    7  C7  UNL     1      -5.416  48.238 -20.865  1.00  0.00     0.209 C 
ENDROOT
BRANCH   1   8
HETATM    8  N1  UNL     1      -3.692  48.607 -18.930  1.00  0.00     0.086 N 
HETATM    9  C1  UNL     1      -2.355  48.046 -19.033  1.00  0.00     0.307 C 
HETATM   10  H4  UNL     1      -4.334  47.891 -18.582  1.00  0.00     0.316 HD
ENDBRANCH   1   8
BRANCH   7  11
HETATM   11  O2  UNL     1      -6.488  48.062 -19.919  1.00  0.00    -0.384 OA
HETATM   12  C8  UNL     1      -6.050  47.865 -18.581  1.00  0.00     0.202 C 
ENDBRANCH   7  11
BRANCH   3  13
HETATM   13  N3  UNL     1      -3.192  49.464 -23.866  1.00  0.00    -0.316 N 
HETATM   14  C24 UNL     1      -3.647  49.108 -25.098  1.00  0.00     0.048 A 
HETATM   15  C19 UNL     1      -2.810  49.762 -26.036  1.00  0.00     0.004 A 
HETATM   16  C23 UNL     1      -4.714  48.288 -25.489  1.00  0.00     0.030 A 
HETATM   17  C18 UNL     1      -1.844  50.540 -25.310  1.00  0.00     0.022 A 
HETATM   18  C20 UNL     1      -3.077  49.567 -27.407  1.00  0.00     0.014 A 
HETATM   19  C17 UNL     1      -0.790  51.444 -25.501  1.00  0.00     0.057 A 
HETATM   20  C25 UNL     1      -2.105  50.285 -23.988  1.00  0.00     0.077 A 
HETATM   21  C16 UNL     1      -0.062  52.101 -24.444  1.00  0.00     0.020 A 
HETATM   22  C27 UNL     1      -0.253  51.943 -26.771  1.00  0.00     0.255 A 
HETATM   23  C15 UNL     1      -0.325  51.866 -23.076  1.00  0.00     0.017 A 
HETATM   24  C28 UNL     1       0.965  53.002 -25.073  1.00  0.00     0.257 A 
HETATM   25  C14 UNL     1       0.122  52.348 -21.811  1.00  0.00     0.004 A 
HETATM   26  C26 UNL     1      -1.303  50.938 -22.797  1.00  0.00     0.077 A 
HETATM   27  C9  UNL     1      -0.586  51.661 -20.803  1.00  0.00     0.049 A 
HETATM   28  C13 UNL     1       1.064  53.330 -21.431  1.00  0.00     0.014 A 
HETATM   29  N2  UNL     1      -1.412  50.732 -21.428  1.00  0.00    -0.308 N 
HETATM   30  C10 UNL     1      -0.371  51.948 -19.443  1.00  0.00     0.030 A 
HETATM   31  C11 UNL     1       0.566  52.928 -19.101  1.00  0.00     0.002 A 
HETATM   32  C12 UNL     1       1.276  53.609 -20.080  1.00  0.00     0.001 A 
HETATM   33  N4  UNL     1       0.711  52.875 -26.468  1.00  0.00    -0.326 N 
HETATM   34  H24 UNL     1       1.278  53.302 -27.185  1.00  0.00     0.165 HD
HETATM   35  O3  UNL     1      -0.584  51.616 -27.893  1.00  0.00    -0.268 OA
HETATM   36  C21 UNL     1      -4.138  48.744 -27.802  1.00  0.00     0.001 A 
HETATM   37  C22 UNL     1      -4.942  48.116 -26.856  1.00  0.00     0.002 A 
BRANCH  24  38
HETATM   38  O4  UNL     1       0.769  54.355 -24.755  1.00  0.00    -0.372 OA
HETATM   39  H26 UNL     1      -0.162  54.537 -24.967  1.00  0.00     0.212 HD
ENDBRANCH  24  38
ENDBRANCH   3  13
TORSDOF 5
ENDMDL
