MODEL 1
REMARK minimizedAffinity -9.44459343
REMARK CNNscore 0.558812082
REMARK CNNaffinity 6.69617605
REMARK  9 active torsions:
REMARK  status: ('A' for Active; 'I' for Inactive)
REMARK    1  A    between atoms: C4_4  and  C5_5 
REMARK    2  A    between atoms: C5_5  and  C6_6 
REMARK    3  A    between atoms: C6_6  and  C7_7 
REMARK    4  A    between atoms: C7_7  and  C9_9 
REMARK    5  A    between atoms: C16_16  and  O1_17 
REMARK    6  A    between atoms: C22_23  and  O2_24 
REMARK    7  A    between atoms: C24_26  and  O3_27 
REMARK    8  A    between atoms: C25_28  and  C27_30 
REMARK    9  A    between atoms: C27_30  and  O5_32 
ROOT
HETATM    1  C9  UNL     1      -0.795  50.269 -21.724  1.00  0.00    -0.002 C 
HETATM    2  C10 UNL     1      -0.814  49.848 -20.233  1.00  0.00     0.007 C 
HETATM    3  C11 UNL     1      -2.069  48.979 -20.034  1.00  0.00     0.015 C 
HETATM    4  C12 UNL     1      -2.570  48.634 -21.457  1.00  0.00    -0.005 C 
HETATM    5  C13 UNL     1      -1.751  47.404 -21.944  1.00  0.00     0.021 C 
HETATM    6  C14 UNL     1      -4.030  48.248 -21.700  1.00  0.00     0.003 C 
HETATM    7  C15 UNL     1      -4.637  48.485 -22.896  1.00  0.00    -0.030 C 
HETATM    8  C16 UNL     1      -3.848  49.192 -24.018  1.00  0.00     0.149 C 
HETATM    9  C17 UNL     1      -2.455  49.780 -23.681  1.00  0.00     0.047 C 
HETATM   10  C18 UNL     1      -2.258  50.003 -22.185  1.00  0.00    -0.026 C 
HETATM   11  C19 UNL     1      -3.197  51.157 -21.730  1.00  0.00     0.016 C 
HETATM   12  C20 UNL     1      -6.174  48.219 -23.131  1.00  0.00     0.014 C 
HETATM   13  C21 UNL     1      -6.827  49.605 -22.851  1.00  0.00     0.023 C 
HETATM   14  C22 UNL     1      -6.507  47.704 -24.595  1.00  0.00     0.133 C 
HETATM   15  C23 UNL     1      -7.573  46.596 -24.699  1.00  0.00     0.065 C 
HETATM   16  C24 UNL     1      -8.717  46.808 -23.712  1.00  0.00     0.139 C 
HETATM   17  C25 UNL     1      -8.194  46.671 -22.260  1.00  0.00     0.072 C 
HETATM   18  C26 UNL     1      -8.246  45.155 -21.887  1.00  0.00     0.030 C 
HETATM   19  C28 UNL     1      -6.675  47.120 -22.129  1.00  0.00     0.029 C 
HETATM   20  C29 UNL     1      -6.260  47.400 -20.689  1.00  0.00     0.090 C 
HETATM   21  C30 UNL     1      -4.780  47.631 -20.560  1.00  0.00     0.157 C 
HETATM   22  O6  UNL     1      -4.226  47.377 -19.486  1.00  0.00    -0.293 OA
ENDROOT
BRANCH   1  23
HETATM   23  C7  UNL     1      -0.037  51.607 -21.978  1.00  0.00    -0.014 C 
HETATM   24  C8  UNL     1      -0.092  52.657 -20.864  1.00  0.00     0.010 C 
BRANCH  23  25
HETATM   25  C6  UNL     1      -0.430  52.235 -23.336  1.00  0.00     0.008 C 
BRANCH  25  26
HETATM   26  C5  UNL     1       0.737  52.474 -24.310  1.00  0.00     0.028 C 
BRANCH  26  27
HETATM   27  C4  UNL     1       0.354  52.324 -25.759  1.00  0.00    -0.025 C 
HETATM   28  C2  UNL     1       1.114  51.846 -26.764  1.00  0.00    -0.091 C 
HETATM   29  C1  UNL     1       2.544  51.401 -26.622  1.00  0.00     0.042 C 
HETATM   30  C3  UNL     1       0.560  51.724 -28.157  1.00  0.00     0.042 C 
ENDBRANCH  26  27
ENDBRANCH  25  26
ENDBRANCH  23  25
ENDBRANCH   1  23
BRANCH   8  31
HETATM   31  O1  UNL     1      -3.673  48.279 -25.104  1.00  0.00    -0.391 OA
HETATM   32  H25 UNL     1      -3.033  48.666 -25.726  1.00  0.00     0.210 HD
ENDBRANCH   8  31
BRANCH  14  33
HETATM   33  O2  UNL     1      -6.971  48.783 -25.428  1.00  0.00    -0.394 OA
HETATM   34  H35 UNL     1      -6.188  49.328 -25.647  1.00  0.00     0.210 HD
ENDBRANCH  14  33
BRANCH  17  35
HETATM   35  C27 UNL     1      -9.203  47.338 -21.316  1.00  0.00     0.151 C 
HETATM   36  O4  UNL     1      -8.954  48.228 -20.513  1.00  0.00    -0.649 OA
BRANCH  35  37
HETATM   37  O5  UNL     1     -10.456  46.868 -21.390  1.00  0.00    -0.776 OA
HETATM   38  H43 UNL     1     -10.918  47.320 -20.650  1.00  0.00     0.167 HD
ENDBRANCH  35  37
ENDBRANCH  17  35
BRANCH  16  39
HETATM   39  O3  UNL     1      -9.348  48.064 -23.968  1.00  0.00    -0.394 OA
HETATM   40  H39 UNL     1      -8.880  48.493 -24.716  1.00  0.00     0.210 HD
ENDBRANCH  16  39
TORSDOF 9
ENDMDL
