MODEL 1
REMARK minimizedAffinity -6.96025801
REMARK CNNscore 0.773335576
REMARK CNNaffinity 7.00227118
REMARK  5 active torsions:
REMARK  status: ('A' for Active; 'I' for Inactive)
REMARK    1  A    between atoms: C2_2  and  C4_4 
REMARK    2  A    between atoms: C7_7  and  C8_8 
REMARK    3  A    between atoms: C8_8  and  O2_10 
REMARK    4  A    between atoms: C22_25  and  C24_27 
REMARK    5  A    between atoms: C24_27  and  O4_28 
ROOT
HETATM    1  C4  UNL     1       2.490  56.336  -8.757  1.00  0.00     0.019 C 
HETATM    2  C5  UNL     1       2.935  57.077  -7.466  1.00  0.00     0.011 C 
HETATM    3  C6  UNL     1       2.312  56.323  -6.278  1.00  0.00     0.021 C 
HETATM    4  C7  UNL     1       1.101  55.610  -6.884  1.00  0.00     0.050 C 
HETATM    5  C9  UNL     1       0.601  54.390  -6.096  1.00  0.00     0.022 C 
HETATM    6  C10 UNL     1      -0.454  53.608  -6.911  1.00  0.00     0.011 C 
HETATM    7  C11 UNL     1       0.016  53.163  -8.341  1.00  0.00    -0.032 C 
HETATM    8  C12 UNL     1       1.107  52.066  -8.098  1.00  0.00     0.016 C 
HETATM    9  C13 UNL     1       0.646  54.409  -9.091  1.00  0.00     0.000 C 
HETATM   10  C14 UNL     1       1.133  54.039 -10.496  1.00  0.00     0.006 C 
HETATM   11  C15 UNL     1       0.024  53.421 -11.353  1.00  0.00     0.006 C 
HETATM   12  C16 UNL     1      -0.644  52.203 -10.679  1.00  0.00     0.003 C 
HETATM   13  C17 UNL     1      -1.587  51.361 -11.643  1.00  0.00    -0.035 C 
HETATM   14  C18 UNL     1      -2.697  52.220 -12.295  1.00  0.00     0.016 C 
HETATM   15  C19 UNL     1      -0.704  50.805 -12.821  1.00  0.00     0.017 C 
HETATM   16  C20 UNL     1      -1.109  49.438 -13.365  1.00  0.00     0.080 C 
HETATM   17  C21 UNL     1      -2.575  49.174 -13.146  1.00  0.00     0.137 C 
HETATM   18  O3  UNL     1      -3.331  48.992 -14.100  1.00  0.00    -0.297 OA
HETATM   19  C22 UNL     1      -3.051  49.142 -11.687  1.00  0.00     0.042 C 
HETATM   20  C23 UNL     1      -4.556  49.471 -11.641  1.00  0.00     0.026 C 
HETATM   21  C25 UNL     1      -2.160  50.135 -10.845  1.00  0.00     0.012 C 
HETATM   22  C26 UNL     1      -2.810  50.558  -9.515  1.00  0.00     0.007 C 
HETATM   23  C27 UNL     1      -1.821  51.298  -8.611  1.00  0.00     0.011 C 
HETATM   24  C28 UNL     1      -1.207  52.575  -9.247  1.00  0.00    -0.032 C 
HETATM   25  C29 UNL     1      -2.350  53.628  -9.337  1.00  0.00     0.016 C 
HETATM   26  C30 UNL     1       1.708  55.113  -8.217  1.00  0.00     0.017 C 
ENDROOT
BRANCH   4  27
HETATM   27  C8  UNL     1      -0.040  56.638  -6.915  1.00  0.00     0.149 C 
HETATM   28  O1  UNL     1      -0.617  57.026  -7.922  1.00  0.00    -0.649 OA
BRANCH  27  29
HETATM   29  O2  UNL     1      -0.439  57.107  -5.724  1.00  0.00    -0.776 OA
HETATM   30  H11 UNL     1      -1.169  57.722  -5.945  1.00  0.00     0.167 HD
ENDBRANCH  27  29
ENDBRANCH   4  27
BRANCH   1  31
HETATM   31  C2  UNL     1       3.681  56.117  -9.681  1.00  0.00    -0.088 C 
HETATM   32  C1  UNL     1       3.693  56.349 -11.004  1.00  0.00     0.014 C 
HETATM   33  C3  UNL     1       4.918  55.589  -8.998  1.00  0.00     0.043 C 
ENDBRANCH   1  31
BRANCH  19  34
HETATM   34  C24 UNL     1      -2.819  47.703 -11.153  1.00  0.00     0.181 C 
BRANCH  34  35
HETATM   35  O4  UNL     1      -1.550  47.518 -10.543  1.00  0.00    -0.400 OA
HETATM   36  H37 UNL     1      -0.858  47.627 -11.219  1.00  0.00     0.209 HD
ENDBRANCH  34  35
ENDBRANCH  19  34
TORSDOF 5
ENDMDL
