MODEL 1
REMARK minimizedAffinity -6.94792461
REMARK CNNscore 0.52933079
REMARK CNNaffinity 6.12149286
REMARK  5 active torsions:
REMARK  status: ('A' for Active; 'I' for Inactive)
REMARK    1  A    between atoms: C2_2  and  C4_4 
REMARK    2  A    between atoms: C7_7  and  C8_8 
REMARK    3  A    between atoms: C8_8  and  O2_10 
REMARK    4  A    between atoms: C22_25  and  C24_27 
REMARK    5  A    between atoms: C24_27  and  O4_28 
ROOT
HETATM    1  C4  UNL     1     -13.413   8.094  13.304  1.00  0.00     0.019 C 
HETATM    2  C5  UNL     1     -13.567   9.580  12.879  1.00  0.00     0.011 C 
HETATM    3  C6  UNL     1     -15.045   9.955  13.081  1.00  0.00     0.021 C 
HETATM    4  C7  UNL     1     -15.781   8.614  13.013  1.00  0.00     0.050 C 
HETATM    5  C9  UNL     1     -17.160   8.593  13.690  1.00  0.00     0.022 C 
HETATM    6  C10 UNL     1     -17.702   7.149  13.778  1.00  0.00     0.011 C 
HETATM    7  C11 UNL     1     -16.744   6.128  14.487  1.00  0.00    -0.032 C 
HETATM    8  C12 UNL     1     -16.725   6.553  15.995  1.00  0.00     0.016 C 
HETATM    9  C13 UNL     1     -15.295   6.256  13.861  1.00  0.00     0.000 C 
HETATM   10  C14 UNL     1     -14.305   5.287  14.517  1.00  0.00     0.006 C 
HETATM   11  C15 UNL     1     -14.778   3.832  14.441  1.00  0.00     0.006 C 
HETATM   12  C16 UNL     1     -16.193   3.632  15.027  1.00  0.00     0.003 C 
HETATM   13  C17 UNL     1     -16.603   2.110  15.236  1.00  0.00    -0.035 C 
HETATM   14  C18 UNL     1     -16.498   1.278  13.937  1.00  0.00     0.016 C 
HETATM   15  C19 UNL     1     -15.590   1.471  16.258  1.00  0.00     0.017 C 
HETATM   16  C20 UNL     1     -16.166   0.401  17.180  1.00  0.00     0.080 C 
HETATM   17  C21 UNL     1     -17.353  -0.281  16.555  1.00  0.00     0.137 C 
HETATM   18  O3  UNL     1     -17.336  -1.491  16.326  1.00  0.00    -0.297 OA
HETATM   19  C22 UNL     1     -18.560   0.611  16.233  1.00  0.00     0.042 C 
HETATM   20  C23 UNL     1     -19.383  -0.043  15.106  1.00  0.00     0.026 C 
HETATM   21  C25 UNL     1     -18.037   2.056  15.876  1.00  0.00     0.012 C 
HETATM   22  C26 UNL     1     -19.058   2.897  15.088  1.00  0.00     0.007 C 
HETATM   23  C27 UNL     1     -18.630   4.364  14.992  1.00  0.00     0.011 C 
HETATM   24  C28 UNL     1     -17.245   4.583  14.326  1.00  0.00    -0.032 C 
HETATM   25  C29 UNL     1     -17.412   4.238  12.816  1.00  0.00     0.016 C 
HETATM   26  C30 UNL     1     -14.820   7.726  13.837  1.00  0.00     0.017 C 
ENDROOT
BRANCH   4  27
HETATM   27  C8  UNL     1     -15.994   8.310  11.522  1.00  0.00     0.149 C 
HETATM   28  O1  UNL     1     -16.352   9.121  10.678  1.00  0.00    -0.649 OA
BRANCH  27  29
HETATM   29  O2  UNL     1     -15.727   7.054  11.136  1.00  0.00    -0.776 OA
HETATM   30  H11 UNL     1     -15.901   7.062  10.172  1.00  0.00     0.167 HD
ENDBRANCH  27  29
ENDBRANCH   4  27
BRANCH   1  31
HETATM   31  C2  UNL     1     -12.200   7.922  14.210  1.00  0.00    -0.088 C 
HETATM   32  C1  UNL     1     -12.001   8.562  15.374  1.00  0.00     0.014 C 
HETATM   33  C3  UNL     1     -11.170   6.945  13.702  1.00  0.00     0.043 C 
ENDBRANCH   1  31
BRANCH  19  34
HETATM   34  C24 UNL     1     -19.425   0.706  17.518  1.00  0.00     0.181 C 
BRANCH  34  35
HETATM   35  O4  UNL     1     -19.408  -0.475  18.306  1.00  0.00    -0.400 OA
HETATM   36  H37 UNL     1     -19.825  -1.196  17.802  1.00  0.00     0.209 HD
ENDBRANCH  34  35
ENDBRANCH  19  34
TORSDOF 5
ENDMDL
