MODEL 1
REMARK minimizedAffinity -8.14858913
REMARK CNNscore 0.668689966
REMARK CNNaffinity 7.27145624
REMARK  12 active torsions:
REMARK  status: ('A' for Active; 'I' for Inactive)
REMARK    1  A    between atoms: C2_2  and  C3_3 
REMARK    2  A    between atoms: C2_2  and  C13_14 
REMARK    3  A    between atoms: C3_3  and  C4_4 
REMARK    4  A    between atoms: C4_4  and  C5_5 
REMARK    5  A    between atoms: C13_14  and  C14_15 
REMARK    6  A    between atoms: C14_15  and  O2_16 
REMARK    7  A    between atoms: C14_15  and  C15_17 
REMARK    8  A    between atoms: C16_18  and  C18_20 
REMARK    9  A    between atoms: C18_20  and  C19_21 
REMARK       I    between atoms: C19_21  and  N1_23 
REMARK   10  A    between atoms: N1_23  and  C20_24 
REMARK   11  A    between atoms: C20_24  and  C21_25 
REMARK   12  A    between atoms: C21_25  and  C22_26 
ROOT
HETATM    1  C14 UNL     1      -2.294   2.482  10.962  1.00  0.00     0.145 C 
ENDROOT
BRANCH   1   2
HETATM    2  C13 UNL     1      -3.582   2.194  11.772  1.00  0.00     0.069 C 
BRANCH   2   3
HETATM    3  C2  UNL     1      -4.821   3.007  11.422  1.00  0.00    -0.086 C 
HETATM    4  C1  UNL     1      -5.099   3.304  10.140  1.00  0.00     0.014 C 
BRANCH   3   5
HETATM    5  C3  UNL     1      -5.737   3.467  12.539  1.00  0.00     0.034 C 
BRANCH   5   6
HETATM    6  C4  UNL     1      -5.232   4.680  13.337  1.00  0.00     0.010 C 
BRANCH   6   7
HETATM    7  C5  UNL     1      -6.116   5.957  13.260  1.00  0.00     0.001 C 
HETATM    8  C6  UNL     1      -5.234   7.197  13.557  1.00  0.00     0.006 C 
HETATM    9  C7  UNL     1      -5.198   7.535  15.036  1.00  0.00     0.008 C 
HETATM   10  C8  UNL     1      -6.570   7.980  15.517  1.00  0.00     0.079 C 
HETATM   11  C9  UNL     1      -7.695   7.319  14.747  1.00  0.00     0.135 C 
HETATM   12  O1  UNL     1      -8.801   7.863  14.702  1.00  0.00    -0.297 OA
HETATM   13  C10 UNL     1      -7.432   5.932  14.131  1.00  0.00     0.017 C 
HETATM   14  C11 UNL     1      -7.421   4.946  15.316  1.00  0.00     0.023 C 
HETATM   15  C12 UNL     1      -8.633   5.570  13.232  1.00  0.00     0.023 C 
ENDBRANCH   6   7
ENDBRANCH   5   6
ENDBRANCH   3   5
ENDBRANCH   2   3
ENDBRANCH   1   2
BRANCH   1  16
HETATM   16  O2  UNL     1      -1.759   1.296  10.376  1.00  0.00    -0.391 OA
HETATM   17  H23 UNL     1      -2.514   0.757  10.086  1.00  0.00     0.210 HD
ENDBRANCH   1  16
BRANCH   1  18
HETATM   18  C15 UNL     1      -1.191   3.119  11.761  1.00  0.00     0.007 C 
HETATM   19  C16 UNL     1      -1.079   4.419  12.106  1.00  0.00    -0.076 C 
HETATM   20  C17 UNL     1      -2.115   5.467  11.798  1.00  0.00     0.043 C 
BRANCH  19  21
HETATM   21  C18 UNL     1       0.124   4.915  12.881  1.00  0.00     0.136 C 
BRANCH  21  22
HETATM   22  C19 UNL     1       1.276   5.257  11.939  1.00  0.00     0.221 C 
HETATM   23  O3  UNL     1       1.613   4.522  11.014  1.00  0.00    -0.273 OA
HETATM   24  N1  UNL     1       1.908   6.446  12.233  1.00  0.00    -0.361 N 
HETATM   25  H30 UNL     1       1.751   6.854  13.148  1.00  0.00     0.162 HD
BRANCH  24  26
HETATM   26  C20 UNL     1       3.121   6.848  11.542  1.00  0.00     0.127 C 
BRANCH  26  27
HETATM   27  C21 UNL     1       2.872   7.952  10.507  1.00  0.00     0.058 C 
BRANCH  27  28
HETATM   28  C22 UNL     1       2.614   7.397   9.125  1.00  0.00    -0.057 A 
HETATM   29  C23 UNL     1       3.043   6.105   8.789  1.00  0.00     0.007 A 
HETATM   30  C24 UNL     1       2.843   5.606   7.502  1.00  0.00     0.001 A 
HETATM   31  C25 UNL     1       2.209   6.389   6.541  1.00  0.00     0.000 A 
HETATM   32  C26 UNL     1       1.774   7.674   6.865  1.00  0.00     0.001 A 
HETATM   33  C27 UNL     1       1.980   8.178   8.151  1.00  0.00     0.007 A 
ENDBRANCH  27  28
ENDBRANCH  26  27
ENDBRANCH  24  26
ENDBRANCH  21  22
ENDBRANCH  19  21
ENDBRANCH   1  18
TORSDOF 12
ENDMDL
