MODEL 1
REMARK minimizedAffinity -7.18305969
REMARK CNNscore 0.842336416
REMARK CNNaffinity 7.28558588
REMARK  6 active torsions:
REMARK  status: ('A' for Active; 'I' for Inactive)
REMARK    1  A    between atoms: C2_2  and  C3_3 
REMARK    2  A    between atoms: C4_5  and  C5_6 
REMARK    3  A    between atoms: C5_6  and  C6_7 
REMARK    4  A    between atoms: C6_7  and  C7_8 
REMARK    5  A    between atoms: C7_8  and  C9_10 
REMARK    6  A    between atoms: C30_32  and  O3_33 
ROOT
HETATM    1  C9  UNL     1      -1.176  51.666  -9.908  1.00  0.00    -0.002 C 
HETATM    2  C10 UNL     1      -0.356  50.673 -10.777  1.00  0.00     0.007 C 
HETATM    3  C11 UNL     1       1.105  51.158 -10.780  1.00  0.00     0.015 C 
HETATM    4  C12 UNL     1       1.186  52.215  -9.663  1.00  0.00    -0.010 C 
HETATM    5  C13 UNL     1       1.387  51.452  -8.316  1.00  0.00     0.021 C 
HETATM    6  C14 UNL     1       2.292  53.273  -9.686  1.00  0.00    -0.039 C 
HETATM    7  C15 UNL     1       2.066  54.502  -9.145  1.00  0.00    -0.066 C 
HETATM    8  C16 UNL     1       0.710  54.880  -8.545  1.00  0.00     0.036 C 
HETATM    9  C17 UNL     1      -0.428  53.845  -8.642  1.00  0.00     0.015 C 
HETATM   10  C18 UNL     1      -0.229  52.902  -9.833  1.00  0.00    -0.029 C 
HETATM   11  C19 UNL     1      -0.361  53.729 -11.152  1.00  0.00     0.016 C 
HETATM   12  C20 UNL     1       3.125  55.622  -9.265  1.00  0.00    -0.015 C 
HETATM   13  C21 UNL     1       2.934  56.232 -10.690  1.00  0.00     0.020 C 
HETATM   14  C22 UNL     1       2.889  56.783  -8.255  1.00  0.00     0.021 C 
HETATM   15  C23 UNL     1       4.103  57.680  -8.092  1.00  0.00     0.080 C 
HETATM   16  C24 UNL     1       5.240  56.903  -7.484  1.00  0.00     0.135 C 
HETATM   17  O2  UNL     1       6.064  57.479  -6.771  1.00  0.00    -0.297 OA
HETATM   18  C25 UNL     1       5.334  55.399  -7.793  1.00  0.00     0.018 C 
HETATM   19  C26 UNL     1       6.840  55.061  -7.908  1.00  0.00     0.023 C 
HETATM   20  C27 UNL     1       4.759  54.632  -6.587  1.00  0.00     0.023 C 
HETATM   21  C28 UNL     1       4.607  55.084  -9.155  1.00  0.00     0.016 C 
HETATM   22  C29 UNL     1       4.770  53.598  -9.543  1.00  0.00     0.043 C 
HETATM   23  C30 UNL     1       3.625  52.964 -10.324  1.00  0.00     0.148 C 
ENDROOT
BRANCH   1  24
HETATM   24  C7  UNL     1      -2.631  51.835 -10.435  1.00  0.00    -0.014 C 
HETATM   25  C8  UNL     1      -3.209  53.224 -10.148  1.00  0.00     0.010 C 
BRANCH  24  26
HETATM   26  C6  UNL     1      -3.598  50.746  -9.898  1.00  0.00     0.008 C 
BRANCH  26  27
HETATM   27  C5  UNL     1      -4.667  50.274 -10.891  1.00  0.00     0.028 C 
BRANCH  27  28
HETATM   28  C4  UNL     1      -6.008  50.161 -10.222  1.00  0.00    -0.017 C 
HETATM   29  C2  UNL     1      -6.955  49.231 -10.447  1.00  0.00    -0.028 C 
HETATM   30  C1  UNL     1      -6.870  48.069 -11.384  1.00  0.00     0.051 C 
BRANCH  29  31
HETATM   31  C3  UNL     1      -8.231  49.331  -9.675  1.00  0.00     0.265 C 
HETATM   32  O1  UNL     1      -8.357  49.968  -8.636  1.00  0.00    -0.302 OA
ENDBRANCH  29  31
ENDBRANCH  27  28
ENDBRANCH  26  27
ENDBRANCH  24  26
ENDBRANCH   1  24
BRANCH  23  33
HETATM   33  O3  UNL     1       3.878  51.564 -10.339  1.00  0.00    -0.391 OA
HETATM   34  H46 UNL     1       4.706  51.424 -10.825  1.00  0.00     0.210 HD
ENDBRANCH  23  33
TORSDOF 6
ENDMDL
