MODEL 1
REMARK minimizedAffinity -9.11329556
REMARK  8 active torsions:
REMARK  status: ('A' for Active; 'I' for Inactive)
REMARK    1  A    between atoms: O1_2  and  C2_3 
REMARK    2  A    between atoms: C9_12  and  O4_13 
REMARK    3  A    between atoms: C10_14  and  C11_15 
REMARK    4  A    between atoms: C11_15  and  C12_16 
REMARK    5  A    between atoms: C13_17  and  C15_19 
REMARK    6  A    between atoms: C15_19  and  C16_20 
REMARK    7  A    between atoms: C16_20  and  C17_21 
REMARK       I    between atoms: C17_21  and  N1_23 
REMARK    8  A    between atoms: N1_23  and  C18_24 
ROOT
HETATM    1  C12 UNL     1      -2.296   6.860  12.737  1.00  0.00    -0.020 C 
HETATM    2  C13 UNL     1      -1.208   7.652  12.664  1.00  0.00    -0.087 C 
HETATM    3  C14 UNL     1      -1.254   8.945  11.891  1.00  0.00     0.043 C 
ENDROOT
BRANCH   1   4
HETATM    4  C11 UNL     1      -2.435   5.534  13.443  1.00  0.00     0.072 C 
BRANCH   4   5
HETATM    5  C10 UNL     1      -3.802   4.912  13.242  1.00  0.00     0.013 A 
HETATM    6  C2  UNL     1      -3.967   3.730  12.468  1.00  0.00     0.084 A 
HETATM    7  C3  UNL     1      -5.239   3.202  12.154  1.00  0.00    -0.018 A 
HETATM    8  C4  UNL     1      -5.406   1.987  11.289  1.00  0.00     0.052 C 
HETATM    9  C5  UNL     1      -6.341   3.837  12.712  1.00  0.00    -0.006 A 
HETATM   10  C6  UNL     1      -6.180   4.958  13.500  1.00  0.00     0.082 A 
HETATM   11  C8  UNL     1      -7.784   3.529  12.616  1.00  0.00     0.219 A 
HETATM   12  C7  UNL     1      -7.485   5.410  13.944  1.00  0.00     0.297 A 
HETATM   13  C9  UNL     1      -4.946   5.519  13.776  1.00  0.00     0.091 A 
HETATM   14  O2  UNL     1      -7.688   6.376  14.655  1.00  0.00    -0.259 OA
HETATM   15  O3  UNL     1      -8.407   4.553  13.422  1.00  0.00    -0.313 OA
BRANCH   6  16
HETATM   16  O1  UNL     1      -2.847   3.125  11.942  1.00  0.00    -0.355 OA
HETATM   17  C1  UNL     1      -2.556   3.653  10.646  1.00  0.00     0.210 C 
ENDBRANCH   6  16
BRANCH  13  18
HETATM   18  O4  UNL     1      -4.830   6.634  14.554  1.00  0.00    -0.359 OA
HETATM   19  H9  UNL     1      -5.723   6.948  14.813  1.00  0.00     0.217 HD
ENDBRANCH  13  18
ENDBRANCH   4   5
ENDBRANCH   1   4
BRANCH   2  20
HETATM   20  C15 UNL     1       0.111   7.363  13.351  1.00  0.00     0.042 C 
BRANCH  20  21
HETATM   21  C16 UNL     1       1.219   8.299  12.876  1.00  0.00     0.107 C 
BRANCH  21  22
HETATM   22  C17 UNL     1       2.173   7.609  11.923  1.00  0.00     0.218 C 
HETATM   23  O5  UNL     1       2.625   6.483  12.099  1.00  0.00    -0.274 OA
HETATM   24  N1  UNL     1       2.493   8.391  10.830  1.00  0.00    -0.356 N 
HETATM   25  H20 UNL     1       2.272   9.380  10.871  1.00  0.00     0.162 HD
BRANCH  24  26
HETATM   26  C18 UNL     1       3.491   7.973   9.854  1.00  0.00     0.089 C 
HETATM   27  C19 UNL     1       3.815   6.484  10.015  1.00  0.00     0.051 C 
HETATM   28  C20 UNL     1       3.036   5.603   9.047  1.00  0.00     0.171 C 
HETATM   29  O6  UNL     1       1.775   6.182   8.734  1.00  0.00    -0.381 OA
HETATM   30  C21 UNL     1       1.867   7.393   7.961  1.00  0.00     0.055 C 
HETATM   31  C22 UNL     1       0.526   8.117   8.154  1.00  0.00     0.045 C 
HETATM   32  C23 UNL     1       2.001   7.040   6.472  1.00  0.00     0.045 C 
HETATM   33  C24 UNL     1       3.048   8.277   8.419  1.00  0.00     0.062 C 
ENDBRANCH  24  26
ENDBRANCH  21  22
ENDBRANCH  20  21
ENDBRANCH   2  20
TORSDOF 8
ENDMDL
