MODEL 1
REMARK minimizedAffinity -9.207901
REMARK  4 active torsions:
REMARK  status: ('A' for Active; 'I' for Inactive)
REMARK    1  A    between atoms: C4_4  and  C5_5 
REMARK    2  A    between atoms: C5_5  and  C6_6 
REMARK    3  A    between atoms: C6_6  and  C7_7 
REMARK    4  A    between atoms: C7_7  and  C9_9 
ROOT
HETATM    1  C9  UNL     1      -2.172   8.233  15.102  1.00  0.00    -0.002 C 
HETATM    2  C10 UNL     1      -3.185   8.982  14.182  1.00  0.00     0.006 C 
HETATM    3  C11 UNL     1      -2.722   8.789  12.724  1.00  0.00     0.011 C 
HETATM    4  C12 UNL     1      -1.666   7.672  12.794  1.00  0.00    -0.032 C 
HETATM    5  C13 UNL     1      -2.486   6.332  12.843  1.00  0.00     0.016 C 
HETATM    6  C14 UNL     1      -0.661   7.526  11.603  1.00  0.00     0.004 C 
HETATM    7  C15 UNL     1      -0.584   8.708  10.637  1.00  0.00     0.007 C 
HETATM    8  C16 UNL     1       0.365   8.467   9.452  1.00  0.00     0.007 C 
HETATM    9  C17 UNL     1       1.160   7.135   9.472  1.00  0.00     0.010 C 
HETATM   10  C18 UNL     1       2.297   7.091   8.397  1.00  0.00     0.018 C 
HETATM   11  C19 UNL     1       1.697   7.173   6.979  1.00  0.00     0.023 C 
HETATM   12  C20 UNL     1       3.334   8.219   8.543  1.00  0.00     0.023 C 
HETATM   13  C21 UNL     1       3.040   5.754   8.542  1.00  0.00     0.135 C 
HETATM   14  O1  UNL     1       3.246   4.998   7.593  1.00  0.00    -0.297 OA
HETATM   15  C22 UNL     1       3.569   5.416   9.914  1.00  0.00     0.080 C 
HETATM   16  C23 UNL     1       2.427   5.437  10.910  1.00  0.00     0.018 C 
HETATM   17  C24 UNL     1       1.672   6.752  10.878  1.00  0.00    -0.026 A 
HETATM   18  C25 UNL     1       2.032   7.850  11.840  1.00  0.00     0.021 A 
HETATM   19  C26 UNL     1       0.739   7.066  12.064  1.00  0.00    -0.027 A 
HETATM   20  C27 UNL     1       0.719   6.203  13.318  1.00  0.00     0.011 C 
HETATM   21  C28 UNL     1       0.010   6.865  14.520  1.00  0.00     0.011 C 
HETATM   22  C29 UNL     1      -0.946   8.019  14.150  1.00  0.00    -0.032 C 
HETATM   23  C30 UNL     1      -0.132   9.346  14.106  1.00  0.00     0.016 C 
ENDROOT
BRANCH   1  24
HETATM   24  C7  UNL     1      -1.990   8.941  16.481  1.00  0.00    -0.014 C 
HETATM   25  C8  UNL     1      -3.232   9.747  16.877  1.00  0.00     0.010 C 
BRANCH  24  26
HETATM   26  C6  UNL     1      -0.739   9.865  16.442  1.00  0.00     0.008 C 
BRANCH  26  27
HETATM   27  C5  UNL     1      -0.891  11.171  17.232  1.00  0.00     0.028 C 
BRANCH  27  28
HETATM   28  C4  UNL     1      -0.367  11.009  18.634  1.00  0.00    -0.025 C 
HETATM   29  C2  UNL     1       0.906  10.823  19.036  1.00  0.00    -0.091 C 
HETATM   30  C1  UNL     1       1.234  10.696  20.501  1.00  0.00     0.042 C 
HETATM   31  C3  UNL     1       2.103  10.726  18.130  1.00  0.00     0.042 C 
ENDBRANCH  27  28
ENDBRANCH  26  27
ENDBRANCH  24  26
ENDBRANCH   1  24
TORSDOF 4
ENDMDL
