MODEL 1
REMARK minimizedAffinity -9.4473114
REMARK  8 active torsions:
REMARK  status: ('A' for Active; 'I' for Inactive)
REMARK    1  A    between atoms: C2_2  and  C30_33 
REMARK    2  A    between atoms: C3_3  and  C4_4 
REMARK    3  A    between atoms: C4_4  and  C5_5 
REMARK    4  A    between atoms: C5_5  and  C6_6 
REMARK    5  A    between atoms: C6_6  and  C8_8 
REMARK    6  A    between atoms: C21_22  and  O2_23 
REMARK    7  A    between atoms: C23_25  and  O3_26 
REMARK    8  A    between atoms: C30_33  and  O4_34 
ROOT
HETATM    1  C8  UNL     1       0.726   7.029  11.896  1.00  0.00    -0.001 C 
HETATM    2  C9  UNL     1       0.418   5.940  10.831  1.00  0.00     0.007 C 
HETATM    3  C10 UNL     1      -0.956   5.339  11.186  1.00  0.00     0.015 C 
HETATM    4  C11 UNL     1      -1.247   5.838  12.615  1.00  0.00    -0.012 C 
HETATM    5  C12 UNL     1      -0.513   4.878  13.605  1.00  0.00     0.021 C 
HETATM    6  C13 UNL     1      -2.686   5.885  13.108  1.00  0.00    -0.060 C 
HETATM    7  C14 UNL     1      -3.052   6.742  14.094  1.00  0.00     0.002 C 
HETATM    8  C15 UNL     1      -1.999   7.683  14.665  1.00  0.00     0.157 C 
HETATM    9  O1  UNL     1      -2.209   8.284  15.725  1.00  0.00    -0.293 OA
HETATM   10  C16 UNL     1      -0.662   7.879  13.951  1.00  0.00     0.094 C 
HETATM   11  C17 UNL     1      -0.667   7.299  12.538  1.00  0.00    -0.022 C 
HETATM   12  C18 UNL     1      -1.516   8.244  11.636  1.00  0.00     0.017 C 
HETATM   13  C19 UNL     1      -4.469   6.761  14.724  1.00  0.00     0.017 C 
HETATM   14  C20 UNL     1      -4.319   5.966  16.051  1.00  0.00     0.023 C 
HETATM   15  C21 UNL     1      -4.951   8.242  14.970  1.00  0.00     0.134 C 
HETATM   16  C22 UNL     1      -6.414   8.530  14.608  1.00  0.00     0.065 C 
HETATM   17  C23 UNL     1      -7.349   7.384  14.988  1.00  0.00     0.128 C 
HETATM   18  C24 UNL     1      -6.989   6.059  14.240  1.00  0.00    -0.017 C 
HETATM   19  C25 UNL     1      -7.903   5.987  12.983  1.00  0.00     0.018 C 
HETATM   20  C26 UNL     1      -7.336   4.817  15.088  1.00  0.00     0.018 C 
HETATM   21  C27 UNL     1      -5.489   6.082  13.737  1.00  0.00     0.011 C 
HETATM   22  C28 UNL     1      -4.966   4.720  13.241  1.00  0.00     0.011 C 
HETATM   23  C29 UNL     1      -3.636   4.878  12.505  1.00  0.00     0.036 C 
ENDROOT
BRANCH   1  24
HETATM   24  C6  UNL     1       1.675   8.152  11.384  1.00  0.00    -0.014 C 
HETATM   25  C7  UNL     1       1.428   8.453   9.900  1.00  0.00     0.010 C 
BRANCH  24  26
HETATM   26  C5  UNL     1       3.185   7.984  11.660  1.00  0.00     0.008 C 
BRANCH  26  27
HETATM   27  C4  UNL     1       3.981   7.636  10.393  1.00  0.00     0.028 C 
BRANCH  27  28
HETATM   28  C3  UNL     1       4.137   6.147  10.253  1.00  0.00    -0.022 C 
HETATM   29  C2  UNL     1       3.640   5.353   9.283  1.00  0.00    -0.064 C 
HETATM   30  C1  UNL     1       2.847   5.835   8.096  1.00  0.00     0.045 C 
BRANCH  29  31
HETATM   31  C30 UNL     1       3.880   3.866   9.310  1.00  0.00     0.197 C 
BRANCH  31  32
HETATM   32  O4  UNL     1       2.857   3.247  10.076  1.00  0.00    -0.397 OA
HETATM   33  H48 UNL     1       3.130   2.327  10.212  1.00  0.00     0.209 HD
ENDBRANCH  31  32
ENDBRANCH  29  31
ENDBRANCH  27  28
ENDBRANCH  26  27
ENDBRANCH  24  26
ENDBRANCH   1  24
BRANCH  15  34
HETATM   34  O2  UNL     1      -4.791   8.602  16.349  1.00  0.00    -0.394 OA
HETATM   35  H30 UNL     1      -3.834   8.812  16.461  1.00  0.00     0.210 HD
ENDBRANCH  15  34
BRANCH  17  36
HETATM   36  O3  UNL     1      -7.373   7.230  16.406  1.00  0.00    -0.395 OA
HETATM   37  H34 UNL     1      -6.560   7.623  16.775  1.00  0.00     0.210 HD
ENDBRANCH  17  36
TORSDOF 8
ENDMDL
