MODEL 1
REMARK minimizedAffinity -8.72136974
REMARK  4 active torsions:
REMARK  status: ('A' for Active; 'I' for Inactive)
REMARK    1  A    between atoms: C4_4  and  C5_5 
REMARK    2  A    between atoms: C5_5  and  C6_6 
REMARK    3  A    between atoms: C6_6  and  C7_7 
REMARK    4  A    between atoms: C7_7  and  C9_9 
ROOT
HETATM    1  C9  UNL     1      -2.032   5.431  12.615  1.00  0.00    -0.002 C 
HETATM    2  C10 UNL     1      -2.038   5.643  14.152  1.00  0.00     0.007 C 
HETATM    3  C11 UNL     1      -0.729   6.391  14.499  1.00  0.00     0.015 C 
HETATM    4  C12 UNL     1      -0.176   6.884  13.142  1.00  0.00    -0.013 C 
HETATM    5  C13 UNL     1      -0.933   8.220  12.841  1.00  0.00     0.021 C 
HETATM    6  C14 UNL     1       1.308   7.208  12.983  1.00  0.00    -0.070 C 
HETATM    7  C15 UNL     1       2.135   7.360  14.031  1.00  0.00    -0.022 C 
HETATM    8  C16 UNL     1       3.562   7.813  13.930  1.00  0.00     0.038 C 
HETATM    9  C17 UNL     1       3.922   8.534  12.590  1.00  0.00    -0.019 C 
HETATM   10  C18 UNL     1       3.178   9.916  12.621  1.00  0.00     0.017 C 
HETATM   11  C19 UNL     1       5.514   8.780  12.464  1.00  0.00     0.021 C 
HETATM   12  C20 UNL     1       6.373   7.786  13.292  1.00  0.00     0.024 C 
HETATM   13  C21 UNL     1       5.972  10.184  12.934  1.00  0.00     0.024 C 
HETATM   14  C22 UNL     1       5.958   8.677  10.992  1.00  0.00     0.135 C 
HETATM   15  O1  UNL     1       7.106   8.359  10.673  1.00  0.00    -0.297 OA
HETATM   16  C23 UNL     1       4.971   9.079   9.928  1.00  0.00     0.080 C 
HETATM   17  C24 UNL     1       3.638   8.345  10.026  1.00  0.00     0.018 C 
HETATM   18  C25 UNL     1       3.350   7.643  11.386  1.00  0.00    -0.028 C 
HETATM   19  C26 UNL     1       4.029   6.242  11.343  1.00  0.00     0.016 C 
HETATM   20  C27 UNL     1       1.768   7.458  11.533  1.00  0.00     0.024 C 
HETATM   21  C28 UNL     1       1.151   6.461  10.500  1.00  0.00     0.010 C 
HETATM   22  C29 UNL     1      -0.317   6.066  10.752  1.00  0.00     0.011 C 
HETATM   23  C30 UNL     1      -0.543   5.670  12.222  1.00  0.00    -0.029 C 
HETATM   24  C31 UNL     1       0.316   4.407  12.525  1.00  0.00     0.016 C 
ENDROOT
BRANCH   1  25
HETATM   25  C7  UNL     1      -2.758   4.157  12.083  1.00  0.00    -0.014 C 
HETATM   26  C8  UNL     1      -2.186   3.827  10.691  1.00  0.00     0.010 C 
BRANCH  25  27
HETATM   27  C6  UNL     1      -4.302   4.256  12.005  1.00  0.00     0.008 C 
BRANCH  27  28
HETATM   28  C5  UNL     1      -4.990   4.621  13.332  1.00  0.00     0.028 C 
BRANCH  28  29
HETATM   29  C4  UNL     1      -6.324   5.294  13.168  1.00  0.00    -0.025 C 
HETATM   30  C2  UNL     1      -7.536   4.723  13.023  1.00  0.00    -0.091 C 
HETATM   31  C1  UNL     1      -7.807   3.245  12.979  1.00  0.00     0.042 C 
HETATM   32  C3  UNL     1      -8.769   5.578  12.876  1.00  0.00     0.042 C 
ENDBRANCH  28  29
ENDBRANCH  27  28
ENDBRANCH  25  27
ENDBRANCH   1  25
TORSDOF 4
ENDMDL
