MODEL 1
REMARK minimizedAffinity -10.2289696
REMARK CNNscore 0.622984529
REMARK CNNaffinity 7.33969116
REMARK  5 active torsions:
REMARK  status: ('A' for Active; 'I' for Inactive)
REMARK    1  A    between atoms: C3_3  and  C4_4 
REMARK    2  A    between atoms: C4_4  and  C5_5 
REMARK       I    between atoms: C5_5  and  N1_7 
REMARK    3  A    between atoms: N1_7  and  C6_8 
REMARK    4  A    between atoms: C6_8  and  C7_9 
REMARK    5  A    between atoms: C7_9  and  C8_10 
ROOT
HETATM    1  C1  UNL     1      -0.871  50.021 -20.761  1.00  0.00     0.050 C 
HETATM    2  C2  UNL     1      -0.090  51.221 -20.288  1.00  0.00    -0.036 A 
HETATM    3  C3  UNL     1       0.291  52.234 -21.097  1.00  0.00     0.033 A 
HETATM    4  C16 UNL     1       1.011  53.426 -20.571  1.00  0.00     0.295 A 
HETATM    5  O2  UNL     1       1.304  54.371 -21.301  1.00  0.00    -0.259 OA
HETATM    6  O3  UNL     1       1.340  53.437 -19.230  1.00  0.00    -0.274 OA
HETATM    7  C17 UNL     1       0.963  52.388 -18.380  1.00  0.00     0.093 A 
HETATM    8  C18 UNL     1       1.330  52.520 -17.040  1.00  0.00     0.075 A 
HETATM    9  C19 UNL     1       0.977  51.529 -16.130  1.00  0.00     0.079 A 
HETATM   10  C20 UNL     1       0.283  50.399 -16.567  1.00  0.00    -0.024 A 
HETATM   11  C21 UNL     1      -0.081  50.292 -17.923  1.00  0.00     0.024 A 
HETATM   12  C22 UNL     1       0.254  51.287 -18.853  1.00  0.00     0.005 A 
HETATM   13  C23 UNL     1      -0.109  49.320 -15.602  1.00  0.00     0.044 C 
HETATM   14  C24 UNL     1       0.714  49.421 -14.327  1.00  0.00     0.042 C 
HETATM   15  C25 UNL     1       0.803  50.874 -13.836  1.00  0.00     0.061 C 
HETATM   16  C26 UNL     1       1.763  50.933 -12.639  1.00  0.00     0.046 C 
HETATM   17  C27 UNL     1      -0.557  51.440 -13.397  1.00  0.00     0.046 C 
HETATM   18  O4  UNL     1       1.368  51.738 -14.838  1.00  0.00    -0.340 OA
ENDROOT
BRANCH   3  19
HETATM   19  C4  UNL     1       0.059  52.297 -22.585  1.00  0.00     0.148 C 
BRANCH  19  20
HETATM   20  C5  UNL     1      -1.335  51.789 -22.910  1.00  0.00     0.222 C 
HETATM   21  O1  UNL     1      -2.346  52.424 -22.617  1.00  0.00    -0.273 OA
HETATM   22  N1  UNL     1      -1.362  50.578 -23.556  1.00  0.00    -0.360 N 
HETATM   23  H6  UNL     1      -0.481  50.101 -23.741  1.00  0.00     0.162 HD
BRANCH  22  24
HETATM   24  C6  UNL     1      -2.597  49.881 -23.860  1.00  0.00     0.127 C 
BRANCH  24  25
HETATM   25  C7  UNL     1      -2.605  49.236 -25.251  1.00  0.00     0.060 C 
BRANCH  25  26
HETATM   26  C8  UNL     1      -2.378  50.226 -26.355  1.00  0.00    -0.029 A 
HETATM   27  C9  UNL     1      -3.343  50.780 -27.174  1.00  0.00     0.096 A 
HETATM   28  N2  UNL     1      -2.731  51.652 -28.032  1.00  0.00    -0.365 N 
HETATM   29  C10 UNL     1      -1.377  51.684 -27.794  1.00  0.00     0.043 A 
HETATM   30  H12 UNL     1      -3.203  52.202 -28.738  1.00  0.00     0.165 HD
HETATM   31  C11 UNL     1      -0.371  52.433 -28.416  1.00  0.00     0.032 A 
HETATM   32  C15 UNL     1      -1.123  50.789 -26.755  1.00  0.00    -0.000 A 
HETATM   33  C12 UNL     1       0.940  52.262 -27.957  1.00  0.00     0.026 A 
HETATM   34  C13 UNL     1       1.221  51.370 -26.925  1.00  0.00     0.035 A 
HETATM   35 CL1  UNL     1       2.844  51.189 -26.378  1.00  0.00    -0.084 Cl
HETATM   36  C14 UNL     1       0.208  50.623 -26.318  1.00  0.00     0.038 A 
ENDBRANCH  25  26
ENDBRANCH  24  25
ENDBRANCH  22  24
ENDBRANCH  19  20
ENDBRANCH   3  19
TORSDOF 5
ENDMDL
