MODEL 1
REMARK minimizedAffinity -9.10772133
REMARK CNNscore 0.582663
REMARK CNNaffinity 7.07586479
REMARK  12 active torsions:
REMARK  status: ('A' for Active; 'I' for Inactive)
REMARK    1  A    between atoms: O1_2  and  C2_3 
REMARK    2  A    between atoms: C4_5  and  O2_6 
REMARK    3  A    between atoms: O2_6  and  C5_7 
REMARK    4  A    between atoms: C8_10  and  C9_11 
REMARK    5  A    between atoms: N1_12  and  C10_14 
REMARK    6  A    between atoms: C10_14  and  C11_15 
REMARK    7  A    between atoms: C11_15  and  C12_16 
REMARK    8  A    between atoms: C12_16  and  O3_17 
REMARK    9  A    between atoms: C18_23  and  C19_24 
REMARK   10  A    between atoms: C25_32  and  O6_33 
REMARK   11  A    between atoms: C29_37  and  O7_38 
REMARK   12  A    between atoms: C33_43  and  O9_44 
ROOT
HETATM    1  C5  UNL     1       0.376   8.545  13.418  1.00  0.00     0.127 C 
HETATM    2  C6  UNL     1      -0.206   7.148  13.306  1.00  0.00     0.033 C 
HETATM    3  C7  UNL     1      -1.053   6.833  14.522  1.00  0.00     0.021 C 
HETATM    4  C8  UNL     1      -2.216   7.849  14.805  1.00  0.00     0.026 C 
HETATM    5  C13 UNL     1      -3.578   7.061  14.573  1.00  0.00     0.009 C 
HETATM    6  C14 UNL     1      -3.937   6.121  15.726  1.00  0.00     0.007 C 
HETATM    7  C15 UNL     1      -5.053   5.202  15.266  1.00  0.00     0.013 C 
HETATM    8  C16 UNL     1      -6.375   5.948  15.021  1.00  0.00    -0.005 C 
HETATM    9  C17 UNL     1      -7.040   6.149  16.411  1.00  0.00     0.019 C 
HETATM   10  C18 UNL     1      -7.387   5.114  14.126  1.00  0.00     0.028 C 
HETATM   11  C23 UNL     1      -8.044   6.168  13.242  1.00  0.00     0.013 C 
HETATM   12  C24 UNL     1      -6.908   7.134  12.927  1.00  0.00     0.040 C 
HETATM   13  C25 UNL     1      -6.199   7.342  14.276  1.00  0.00     0.070 C 
HETATM   14  C26 UNL     1      -4.767   7.983  14.231  1.00  0.00     0.026 C 
HETATM   15  C27 UNL     1      -4.470   8.744  12.908  1.00  0.00     0.011 C 
HETATM   16  C28 UNL     1      -2.978   8.921  12.604  1.00  0.00     0.039 C 
HETATM   17  C29 UNL     1      -2.142   9.136  13.882  1.00  0.00     0.073 C 
HETATM   18  C30 UNL     1      -0.716   9.619  13.520  1.00  0.00     0.071 C 
ENDROOT
BRANCH   1  19
HETATM   19  O2  UNL     1       1.233   8.735  12.288  1.00  0.00    -0.356 OA
BRANCH  19  20
HETATM   20  C4  UNL     1       2.121   7.644  12.061  1.00  0.00     0.263 C 
HETATM   21  C3  UNL     1       1.765   7.042  10.707  1.00  0.00     0.095 C 
HETATM   22  C2  UNL     1       2.701   5.884  10.396  1.00  0.00     0.156 C 
HETATM   23  C33 UNL     1       4.160   6.362  10.467  1.00  0.00     0.175 C 
HETATM   24  C31 UNL     1       4.411   7.034  11.824  1.00  0.00     0.151 C 
HETATM   25  O8  UNL     1       3.476   8.093  12.053  1.00  0.00    -0.354 OA
HETATM   26  C32 UNL     1       5.813   7.630  11.899  1.00  0.00     0.042 C 
BRANCH  22  27
HETATM   27  O1  UNL     1       2.407   5.425   9.066  1.00  0.00    -0.388 OA
HETATM   28  C1  UNL     1       2.551   6.443   8.082  1.00  0.00     0.202 C 
ENDBRANCH  22  27
BRANCH  23  29
HETATM   29  O9  UNL     1       5.031   5.238  10.284  1.00  0.00    -0.390 OA
HETATM   30  H51 UNL     1       4.821   4.890   9.399  1.00  0.00     0.210 HD
ENDBRANCH  23  29
ENDBRANCH  19  20
ENDBRANCH   1  19
BRANCH  17  31
HETATM   31  O7  UNL     1      -2.810  10.270  14.486  1.00  0.00    -0.389 OA
HETATM   32  H43 UNL     1      -2.422  10.389  15.378  1.00  0.00     0.210 HD
ENDBRANCH  17  31
BRANCH   4  33
HETATM   33  C9  UNL     1      -2.019   8.209  16.301  1.00  0.00     0.068 C 
HETATM   34  N1  UNL     1      -2.737   9.101  16.891  1.00  0.00    -0.401 N 
ATOM     35  H1  UNL     1      -3.521   9.556  16.422  1.00  0.00     0.158 HD
BRANCH  34  36
HETATM   36  C10 UNL     1      -2.368   9.427  18.269  1.00  0.00     0.121 C 
BRANCH  36  37
HETATM   37  C11 UNL     1      -3.334  10.493  18.801  1.00  0.00     0.045 C 
BRANCH  37  38
HETATM   38  C12 UNL     1      -3.269  11.769  17.979  1.00  0.00     0.165 C 
BRANCH  38  39
HETATM   39  O3  UNL     1      -4.096  11.672  16.822  1.00  0.00    -0.401 OA
HETATM   40  H20 UNL     1      -4.993  11.441  17.122  1.00  0.00     0.209 HD
ENDBRANCH  38  39
ENDBRANCH  37  38
ENDBRANCH  36  37
ENDBRANCH  34  36
ENDBRANCH   4  33
BRANCH  13  41
HETATM   41  O6  UNL     1      -7.031   8.333  14.937  1.00  0.00    -0.389 OA
HETATM   42  H37 UNL     1      -6.906   9.187  14.485  1.00  0.00     0.210 HD
ENDBRANCH  13  41
BRANCH  10  43
HETATM   43  C19 UNL     1      -6.847   3.953  13.318  1.00  0.00    -0.045 A 
HETATM   44  C20 UNL     1      -5.663   3.928  12.693  1.00  0.00     0.087 A 
HETATM   45  C21 UNL     1      -5.555   2.635  12.028  1.00  0.00     0.283 A 
HETATM   46  O4  UNL     1      -4.614   2.289  11.342  1.00  0.00    -0.260 OA
HETATM   47  O5  UNL     1      -6.670   1.899  12.282  1.00  0.00    -0.314 OA
HETATM   48  C22 UNL     1      -7.543   2.657  13.122  1.00  0.00     0.213 A 
ENDBRANCH  10  43
TORSDOF 12
ENDMDL
