MODEL 1
REMARK minimizedAffinity -9.77875423
REMARK CNNscore 0.332392693
REMARK CNNaffinity 6.9633956
REMARK  14 active torsions:
REMARK  status: ('A' for Active; 'I' for Inactive)
REMARK    1  A    between atoms: C2_2  and  C3_3 
REMARK    2  A    between atoms: C2_2  and  C35_44 
REMARK    3  A    between atoms: C3_3  and  C4_4 
REMARK    4  A    between atoms: C4_4  and  C5_5 
REMARK    5  A    between atoms: C5_5  and  C6_6 
REMARK    6  A    between atoms: C5_5  and  C7_9 
REMARK    7  A    between atoms: C6_6  and  O2_8 
REMARK    8  A    between atoms: C28_31  and  O4_32 
REMARK    9  A    between atoms: O4_32  and  C29_33 
REMARK   10  A    between atoms: C30_35  and  C31_36 
REMARK   11  A    between atoms: C31_36  and  O6_37 
REMARK   12  A    between atoms: C32_38  and  O7_39 
REMARK   13  A    between atoms: C33_40  and  O8_41 
REMARK   14  A    between atoms: C34_42  and  O9_43 
ROOT
HETATM    1  C7  UNL     1      -0.507  50.235 -21.586  1.00  0.00     0.009 C 
HETATM    2  C8  UNL     1      -0.635  49.777 -20.114  1.00  0.00     0.007 C 
HETATM    3  C9  UNL     1      -1.980  49.018 -20.005  1.00  0.00     0.015 C 
HETATM    4  C10 UNL     1      -2.445  48.782 -21.456  1.00  0.00    -0.010 C 
HETATM    5  C11 UNL     1      -1.710  47.495 -21.955  1.00  0.00     0.021 C 
HETATM    6  C12 UNL     1      -3.920  48.523 -21.788  1.00  0.00    -0.039 C 
HETATM    7  C13 UNL     1      -4.381  48.843 -23.031  1.00  0.00    -0.066 C 
HETATM    8  C14 UNL     1      -3.521  49.606 -24.049  1.00  0.00     0.036 C 
HETATM    9  C15 UNL     1      -2.090  49.992 -23.632  1.00  0.00     0.015 C 
HETATM   10  C16 UNL     1      -1.965  50.127 -22.115  1.00  0.00    -0.028 C 
HETATM   11  C17 UNL     1      -2.798  51.361 -21.664  1.00  0.00     0.016 C 
HETATM   12  C18 UNL     1      -5.820  48.468 -23.482  1.00  0.00    -0.015 C 
HETATM   13  C19 UNL     1      -6.692  49.696 -23.145  1.00  0.00     0.020 C 
HETATM   14  C20 UNL     1      -5.894  48.187 -25.008  1.00  0.00     0.021 C 
HETATM   15  C21 UNL     1      -7.245  47.665 -25.466  1.00  0.00     0.080 C 
HETATM   16  C22 UNL     1      -7.580  46.387 -24.741  1.00  0.00     0.135 C 
HETATM   17  O3  UNL     1      -7.927  45.390 -25.376  1.00  0.00    -0.297 OA
HETATM   18  C23 UNL     1      -7.544  46.421 -23.208  1.00  0.00     0.018 C 
HETATM   19  C24 UNL     1      -8.856  47.047 -22.714  1.00  0.00     0.023 C 
HETATM   20  C25 UNL     1      -7.530  44.955 -22.704  1.00  0.00     0.023 C 
HETATM   21  C26 UNL     1      -6.228  47.143 -22.741  1.00  0.00     0.016 C 
HETATM   22  C27 UNL     1      -6.156  47.362 -21.229  1.00  0.00     0.043 C 
HETATM   23  C28 UNL     1      -4.756  47.778 -20.751  1.00  0.00     0.155 C 
ENDROOT
BRANCH  23  24
HETATM   24  O4  UNL     1      -4.941  48.619 -19.607  1.00  0.00    -0.349 OA
BRANCH  24  25
HETATM   25  C29 UNL     1      -4.712  47.940 -18.360  1.00  0.00     0.292 C 
HETATM   26  O5  UNL     1      -3.848  46.822 -18.515  1.00  0.00    -0.348 OA
HETATM   27  C30 UNL     1      -3.486  46.198 -17.273  1.00  0.00     0.179 C 
HETATM   28  C32 UNL     1      -4.490  46.437 -16.117  1.00  0.00     0.180 C 
HETATM   29  C33 UNL     1      -5.940  46.525 -16.620  1.00  0.00     0.183 C 
HETATM   30  C34 UNL     1      -6.080  47.434 -17.858  1.00  0.00     0.204 C 
BRANCH  27  31
HETATM   31  C31 UNL     1      -3.278  44.704 -17.561  1.00  0.00     0.198 C 
BRANCH  31  32
HETATM   32  O6  UNL     1      -2.108  44.204 -16.924  1.00  0.00    -0.398 OA
HETATM   33  H45 UNL     1      -1.341  44.604 -17.377  1.00  0.00     0.209 HD
ENDBRANCH  31  32
ENDBRANCH  27  31
BRANCH  28  34
HETATM   34  O7  UNL     1      -4.136  47.668 -15.461  1.00  0.00    -0.390 OA
HETATM   35  H47 UNL     1      -4.796  47.841 -14.763  1.00  0.00     0.210 HD
ENDBRANCH  28  34
BRANCH  29  36
HETATM   36  O8  UNL     1      -6.434  45.213 -16.925  1.00  0.00    -0.390 OA
HETATM   37  H49 UNL     1      -6.487  44.713 -16.094  1.00  0.00     0.210 HD
ENDBRANCH  29  36
BRANCH  30  38
HETATM   38  O9  UNL     1      -6.944  48.546 -17.557  1.00  0.00    -0.388 OA
HETATM   39  H51 UNL     1      -7.053  49.017 -18.408  1.00  0.00     0.210 HD
ENDBRANCH  30  38
ENDBRANCH  24  25
ENDBRANCH  23  24
BRANCH   1  40
HETATM   40  C5  UNL     1       0.295  51.538 -21.861  1.00  0.00     0.089 C 
BRANCH  40  41
HETATM   41  C4  UNL     1      -0.153  52.410 -23.053  1.00  0.00     0.020 C 
BRANCH  41  42
HETATM   42  C3  UNL     1       0.748  52.304 -24.301  1.00  0.00     0.034 C 
BRANCH  42  43
HETATM   43  C2  UNL     1       0.087  52.103 -25.653  1.00  0.00    -0.086 C 
HETATM   44  C1  UNL     1      -1.112  52.625 -25.969  1.00  0.00     0.014 C 
BRANCH  43  45
HETATM   45  C35 UNL     1       0.859  51.306 -26.702  1.00  0.00     0.005 C 
HETATM   46  C36 UNL     1       0.568  51.787 -28.127  1.00  0.00     0.014 C 
HETATM   47  C37 UNL     1       2.363  51.307 -26.422  1.00  0.00     0.014 C 
ENDBRANCH  43  45
ENDBRANCH  42  43
ENDBRANCH  41  42
ENDBRANCH  40  41
BRANCH  40  48
HETATM   48  C6  UNL     1       0.294  52.354 -20.580  1.00  0.00     0.144 C 
HETATM   49  O1  UNL     1      -0.633  52.448 -19.792  1.00  0.00    -0.650 OA
BRANCH  48  50
HETATM   50  O2  UNL     1       1.425  53.053 -20.380  1.00  0.00    -0.776 OA
HETATM   51  H8  UNL     1       1.258  53.539 -19.545  1.00  0.00     0.167 HD
ENDBRANCH  48  50
ENDBRANCH  40  48
ENDBRANCH   1  40
TORSDOF 14
ENDMDL
