MODEL 1
REMARK minimizedAffinity -8.58700371
REMARK  14 active torsions:
REMARK  status: ('A' for Active; 'I' for Inactive)
REMARK    1  A    between atoms: C2_2  and  C30_34 
REMARK    2  A    between atoms: C3_3  and  C4_4 
REMARK    3  A    between atoms: C4_4  and  C5_5 
REMARK    4  A    between atoms: C5_5  and  C6_6 
REMARK    5  A    between atoms: C6_6  and  C8_8 
REMARK    6  A    between atoms: C16_16  and  C17_17 
REMARK    7  A    between atoms: C17_17  and  O1_19 
REMARK    8  A    between atoms: C17_17  and  C19_20 
REMARK    9  A    between atoms: C19_20  and  O2_21 
REMARK   10  A    between atoms: C20_22  and  C21_23 
REMARK   11  A    between atoms: C21_23  and  C22_24 
REMARK   12  A    between atoms: C22_24  and  C23_25 
REMARK   13  A    between atoms: C23_25  and  O4_27 
REMARK   14  A    between atoms: C30_34  and  O5_35 
ROOT
HETATM    1  C8  UNL     1      -2.969   7.232  14.099  1.00  0.00    -0.002 C 
HETATM    2  C9  UNL     1      -3.640   8.361  13.309  1.00  0.00     0.006 C 
HETATM    3  C10 UNL     1      -2.550   8.772  12.337  1.00  0.00     0.011 C 
HETATM    4  C11 UNL     1      -1.267   8.862  13.206  1.00  0.00    -0.032 C 
HETATM    5  C12 UNL     1      -1.221  10.312  13.763  1.00  0.00     0.016 C 
HETATM    6  C13 UNL     1      -0.010   8.644  12.299  1.00  0.00     0.004 C 
HETATM    7  C14 UNL     1       1.356   8.948  13.018  1.00  0.00     0.007 C 
HETATM    8  C15 UNL     1       2.662   8.339  12.421  1.00  0.00     0.009 C 
HETATM    9  C16 UNL     1       2.481   7.045  11.566  1.00  0.00     0.031 C 
HETATM   10  C20 UNL     1       1.268   7.314  10.666  1.00  0.00    -0.025 A 
HETATM   11  C24 UNL     1      -0.022   6.632  10.355  1.00  0.00     0.021 A 
HETATM   12  C25 UNL     1       0.065   7.245  11.716  1.00  0.00    -0.027 A 
HETATM   13  C26 UNL     1      -0.276   6.126  12.706  1.00  0.00     0.011 C 
HETATM   14  C27 UNL     1      -0.477   6.571  14.147  1.00  0.00     0.011 C 
HETATM   15  C28 UNL     1      -1.484   7.741  14.331  1.00  0.00    -0.032 C 
HETATM   16  C29 UNL     1      -1.249   8.286  15.751  1.00  0.00     0.016 C 
ENDROOT
BRANCH   1  17
HETATM   17  C6  UNL     1      -3.885   6.685  15.238  1.00  0.00    -0.014 C 
HETATM   18  C7  UNL     1      -3.330   5.509  16.050  1.00  0.00     0.010 C 
BRANCH  17  19
HETATM   19  C5  UNL     1      -5.335   6.369  14.808  1.00  0.00     0.008 C 
BRANCH  19  20
HETATM   20  C4  UNL     1      -5.444   5.724  13.421  1.00  0.00     0.028 C 
BRANCH  20  21
HETATM   21  C3  UNL     1      -6.442   4.599  13.429  1.00  0.00    -0.022 C 
HETATM   22  C2  UNL     1      -6.456   3.489  12.662  1.00  0.00    -0.064 C 
HETATM   23  C1  UNL     1      -5.455   3.166  11.584  1.00  0.00     0.045 C 
BRANCH  22  24
HETATM   24  C30 UNL     1      -7.552   2.464  12.816  1.00  0.00     0.197 C 
BRANCH  24  25
HETATM   25  O5  UNL     1      -8.791   3.137  12.982  1.00  0.00    -0.397 OA
HETATM   26  H50 UNL     1      -8.875   3.743  12.225  1.00  0.00     0.209 HD
ENDBRANCH  24  25
ENDBRANCH  22  24
ENDBRANCH  20  21
ENDBRANCH  19  20
ENDBRANCH  17  19
ENDBRANCH   1  17
BRANCH  10  27
HETATM   27  C21 UNL     1       1.464   8.463   9.635  1.00  0.00     0.021 C 
BRANCH  27  28
HETATM   28  C22 UNL     1       0.847   8.165   8.263  1.00  0.00     0.111 C 
BRANCH  28  29
HETATM   29  C23 UNL     1       1.908   7.816   7.257  1.00  0.00     0.139 C 
HETATM   30  O3  UNL     1       1.920   6.878   6.477  1.00  0.00    -0.650 OA
BRANCH  29  31
HETATM   31  O4  UNL     1       2.949   8.671   7.309  1.00  0.00    -0.776 OA
HETATM   32  H38 UNL     1       3.569   8.338   6.628  1.00  0.00     0.167 HD
ENDBRANCH  29  31
ENDBRANCH  28  29
ENDBRANCH  27  28
ENDBRANCH  10  27
BRANCH   9  33
HETATM   33  C17 UNL     1       3.777   6.547  10.859  1.00  0.00     0.080 C 
HETATM   34  C18 UNL     1       4.484   7.723  10.162  1.00  0.00     0.048 C 
BRANCH  33  35
HETATM   35  O1  UNL     1       4.679   5.961  11.806  1.00  0.00    -0.388 OA
HETATM   36  H30 UNL     1       5.505   5.734  11.344  1.00  0.00     0.210 HD
ENDBRANCH  33  35
BRANCH  33  37
HETATM   37  C19 UNL     1       3.460   5.454   9.802  1.00  0.00     0.201 C 
BRANCH  37  38
HETATM   38  O2  UNL     1       2.775   4.329  10.336  1.00  0.00    -0.398 OA
HETATM   39  H33 UNL     1       1.855   4.590  10.509  1.00  0.00     0.209 HD
ENDBRANCH  37  38
ENDBRANCH  33  37
ENDBRANCH   9  33
TORSDOF 14
ENDMDL
