MODEL 1
REMARK minimizedAffinity -6.87229538
REMARK CNNscore 0.449321687
REMARK CNNaffinity 6.42184973
REMARK  4 active torsions:
REMARK  status: ('A' for Active; 'I' for Inactive)
REMARK    1  A    between atoms: C4_4  and  C5_5 
REMARK    2  A    between atoms: C5_5  and  C6_7 
REMARK    3  A    between atoms: C6_7  and  C7_8 
REMARK    4  A    between atoms: C7_8  and  C9_10 
ROOT
HETATM    1  C9  UNL     1      -3.031  12.219  17.738  1.00  0.00    -0.002 C 
HETATM    2  C10 UNL     1      -2.638  11.278  18.916  1.00  0.00     0.006 C 
HETATM    3  C11 UNL     1      -1.965  10.030  18.308  1.00  0.00     0.011 C 
HETATM    4  C12 UNL     1      -1.675  10.414  16.847  1.00  0.00    -0.032 C 
HETATM    5  C13 UNL     1      -0.350  11.260  16.897  1.00  0.00     0.016 C 
HETATM    6  C14 UNL     1      -1.421   9.269  15.810  1.00  0.00     0.004 C 
HETATM    7  C15 UNL     1      -1.822   7.857  16.249  1.00  0.00     0.007 C 
HETATM    8  C16 UNL     1      -1.513   6.770  15.199  1.00  0.00     0.007 C 
HETATM    9  C17 UNL     1      -0.897   7.282  13.873  1.00  0.00     0.010 C 
HETATM   10  C18 UNL     1      -0.795   6.195  12.756  1.00  0.00     0.018 C 
HETATM   11  C19 UNL     1      -2.164   5.694  12.269  1.00  0.00     0.023 C 
HETATM   12  C20 UNL     1       0.033   4.992  13.244  1.00  0.00     0.023 C 
HETATM   13  C21 UNL     1      -0.068   6.797  11.542  1.00  0.00     0.135 C 
HETATM   14  O2  UNL     1       0.353   6.093  10.620  1.00  0.00    -0.297 OA
HETATM   15  C22 UNL     1       0.145   8.291  11.515  1.00  0.00     0.080 C 
HETATM   16  C23 UNL     1      -1.120   9.003  11.963  1.00  0.00     0.018 C 
HETATM   17  C24 UNL     1      -1.576   8.564  13.347  1.00  0.00    -0.026 A 
HETATM   18  C25 UNL     1      -3.028   8.796  13.686  1.00  0.00     0.021 A 
HETATM   19  C26 UNL     1      -1.967   9.615  14.406  1.00  0.00    -0.027 A 
HETATM   20  C27 UNL     1      -1.983  11.103  14.092  1.00  0.00     0.011 C 
HETATM   21  C28 UNL     1      -2.745  11.952  15.131  1.00  0.00     0.011 C 
HETATM   22  C29 UNL     1      -2.952  11.265  16.499  1.00  0.00    -0.032 C 
HETATM   23  C30 UNL     1      -4.266  10.431  16.447  1.00  0.00     0.016 C 
ENDROOT
BRANCH   1  24
HETATM   24  C7  UNL     1      -4.338  13.012  18.024  1.00  0.00    -0.007 C 
HETATM   25  C8  UNL     1      -4.340  14.402  17.380  1.00  0.00     0.011 C 
BRANCH  24  26
HETATM   26  C6  UNL     1      -4.652  13.134  19.534  1.00  0.00     0.087 C 
BRANCH  26  27
HETATM   27  C5  UNL     1      -5.677  14.202  19.875  1.00  0.00     0.149 C 
HETATM   28  O1  UNL     1      -5.360  15.379  20.030  1.00  0.00    -0.293 OA
BRANCH  27  29
HETATM   29  C4  UNL     1      -7.092  13.753  20.031  1.00  0.00     0.052 C 
HETATM   30  C2  UNL     1      -7.633  13.291  21.175  1.00  0.00    -0.084 C 
HETATM   31  C1  UNL     1      -6.919  13.202  22.497  1.00  0.00     0.043 C 
HETATM   32  C3  UNL     1      -9.063  12.822  21.207  1.00  0.00     0.043 C 
ENDBRANCH  27  29
ENDBRANCH  26  27
ENDBRANCH  24  26
ENDBRANCH   1  24
TORSDOF 4
ENDMDL
