MODEL 1
REMARK minimizedAffinity -9.66569519
REMARK CNNscore 0.652631581
REMARK CNNaffinity 6.53970528
REMARK  8 active torsions:
REMARK  status: ('A' for Active; 'I' for Inactive)
REMARK    1  A    between atoms: C11_11  and  O1_12 
REMARK    2  A    between atoms: O1_12  and  C12_13 
REMARK    3  A    between atoms: C14_16  and  O3_17 
REMARK    4  A    between atoms: C15_18  and  O4_19 
REMARK    5  A    between atoms: C16_20  and  O5_21 
REMARK    6  A    between atoms: C19_24  and  C20_25 
REMARK    7  A    between atoms: C21_27  and  O7_28 
REMARK    8  A    between atoms: C24_31  and  C25_32 
ROOT
HETATM    1  C1  UNL     1      -6.163   6.585  13.157  1.00  0.00     0.019 C 
HETATM    2  C2  UNL     1      -7.583   6.148  13.604  1.00  0.00    -0.005 C 
HETATM    3  C3  UNL     1      -8.541   6.505  12.448  1.00  0.00     0.013 C 
HETATM    4  C4  UNL     1     -10.022   6.362  12.778  1.00  0.00     0.007 C 
HETATM    5  C5  UNL     1     -10.462   7.061  14.084  1.00  0.00     0.012 C 
HETATM    6  C6  UNL     1      -9.271   7.775  14.792  1.00  0.00     0.027 C 
HETATM    7  C7  UNL     1      -9.724   8.386  16.138  1.00  0.00     0.012 C 
HETATM    8  C8  UNL     1     -10.913   9.330  15.979  1.00  0.00     0.036 C 
HETATM    9  C9  UNL     1     -12.045   8.636  15.259  1.00  0.00    -0.065 C 
HETATM   10  C10 UNL     1     -13.252   8.539  15.848  1.00  0.00     0.009 C 
HETATM   11  C11 UNL     1     -14.398   7.731  15.321  1.00  0.00     0.148 C 
HETATM   12  C17 UNL     1     -13.863   6.632  14.403  1.00  0.00     0.037 C 
HETATM   13  C18 UNL     1     -12.940   7.215  13.332  1.00  0.00     0.024 C 
HETATM   14  C19 UNL     1     -11.712   7.995  13.907  1.00  0.00     0.040 C 
HETATM   15  C21 UNL     1      -8.024   6.857  14.950  1.00  0.00     0.070 C 
HETATM   16  C22 UNL     1      -8.203   5.722  15.977  1.00  0.00     0.040 C 
HETATM   17  C23 UNL     1      -7.316   4.601  15.460  1.00  0.00     0.013 C 
HETATM   18  C24 UNL     1      -7.607   4.615  13.954  1.00  0.00     0.028 C 
ENDROOT
BRANCH  11  19
HETATM   19  O1  UNL     1     -15.257   8.572  14.554  1.00  0.00    -0.349 OA
BRANCH  19  20
HETATM   20  C12 UNL     1     -15.784   7.951  13.375  1.00  0.00     0.291 C 
HETATM   21  O2  UNL     1     -16.995   7.233  13.629  1.00  0.00    -0.356 OA
HETATM   22  C13 UNL     1     -18.152   8.073  13.552  1.00  0.00     0.205 C 
HETATM   23  C14 UNL     1     -18.399   8.461  12.089  1.00  0.00     0.173 C 
HETATM   24  C15 UNL     1     -17.070   8.687  11.340  1.00  0.00     0.182 C 
HETATM   25  C16 UNL     1     -15.958   9.066  12.316  1.00  0.00     0.204 C 
BRANCH  23  26
HETATM   26  O3  UNL     1     -19.134   7.407  11.445  1.00  0.00    -0.391 OA
HETATM   27  H20 UNL     1     -18.624   6.584  11.550  1.00  0.00     0.210 HD
ENDBRANCH  23  26
BRANCH  24  28
HETATM   28  O4  UNL     1     -17.222   9.736  10.371  1.00  0.00    -0.390 OA
HETATM   29  H22 UNL     1     -16.321   9.903  10.031  1.00  0.00     0.210 HD
ENDBRANCH  24  28
BRANCH  25  30
HETATM   30  O5  UNL     1     -14.735   9.295  11.593  1.00  0.00    -0.388 OA
HETATM   31  H24 UNL     1     -14.100   9.653  12.242  1.00  0.00     0.210 HD
ENDBRANCH  25  30
ENDBRANCH  19  20
ENDBRANCH  11  19
BRANCH  14  32
HETATM   32  C20 UNL     1     -11.399   9.091  12.858  1.00  0.00     0.245 C 
HETATM   33  O6  UNL     1     -11.916   9.204  11.750  1.00  0.00    -0.306 OA
ENDBRANCH  14  32
BRANCH  15  34
HETATM   34  O7  UNL     1      -6.939   7.671  15.416  1.00  0.00    -0.389 OA
HETATM   35  H30 UNL     1      -7.101   7.930  16.338  1.00  0.00     0.210 HD
ENDBRANCH  15  34
BRANCH  18  36
HETATM   36  C25 UNL     1      -6.752   3.678  13.143  1.00  0.00    -0.045 A 
HETATM   37  C26 UNL     1      -7.121   2.587  12.469  1.00  0.00     0.087 A 
HETATM   38  C27 UNL     1      -5.941   2.079  11.777  1.00  0.00     0.283 A 
HETATM   39  O8  UNL     1      -5.927   1.099  11.056  1.00  0.00    -0.260 OA
HETATM   40  O9  UNL     1      -4.881   2.884  12.052  1.00  0.00    -0.314 OA
HETATM   41  C28 UNL     1      -5.303   3.923  12.935  1.00  0.00     0.213 A 
ENDBRANCH  18  36
TORSDOF 8
ENDMDL
