MODEL 1
REMARK minimizedAffinity -6.61878681
REMARK CNNscore 0.876357317
REMARK CNNaffinity 7.13654137
REMARK  15 active torsions:
REMARK  status: ('A' for Active; 'I' for Inactive)
REMARK    1  A    between atoms: C4_5  and  O2_6 
REMARK    2  A    between atoms: C7_10  and  O4_11 
REMARK    3  A    between atoms: O4_11  and  C8_12 
REMARK    4  A    between atoms: C8_12  and  C9_14 
REMARK    5  A    between atoms: C9_14  and  C11_16 
REMARK    6  A    between atoms: C11_16  and  O6_17 
REMARK    7  A    between atoms: C11_16  and  C12_18 
REMARK    8  A    between atoms: C14_20  and  C15_21 
REMARK    9  A    between atoms: C15_21  and  C16_22 
REMARK   10  A    between atoms: C15_21  and  C17_24 
REMARK   11  A    between atoms: C16_22  and  O7_23 
REMARK   12  A    between atoms: C17_24  and  C18_25 
REMARK   13  A    between atoms: C18_25  and  C19_26 
REMARK   14  A    between atoms: C19_26  and  C20_27 
REMARK   15  A    between atoms: C20_27  and  C21_28 
ROOT
HETATM    1  O4  UNL     1       1.959  54.852  -9.195  1.00  0.00    -0.312 OA
ENDROOT
BRANCH   1   2
HETATM    2  C7  UNL     1       2.623  56.127  -9.328  1.00  0.00     0.170 C 
HETATM    3  C6  UNL     1       3.502  56.423  -8.132  1.00  0.00     0.127 A 
HETATM    4  C5  UNL     1       2.970  57.291  -7.009  1.00  0.00     0.223 A 
HETATM    5  O3  UNL     1       3.818  57.829  -8.040  1.00  0.00    -0.360 OA
HETATM    6  C27 UNL     1       4.726  55.532  -7.896  1.00  0.00    -0.003 C 
HETATM    7  C4  UNL     1       3.555  57.264  -5.631  1.00  0.00     0.199 C 
HETATM    8  O1  UNL     1       3.868  58.601  -5.236  1.00  0.00    -0.348 OA
HETATM    9  C30 UNL     1       4.841  56.427  -5.471  1.00  0.00     0.082 C 
HETATM   10  C3  UNL     1       4.906  58.536  -4.253  1.00  0.00     0.205 C 
HETATM   11  C2  UNL     1       5.643  57.264  -4.506  1.00  0.00    -0.056 C 
HETATM   12  C1  UNL     1       6.821  56.932  -3.960  1.00  0.00     0.017 C 
HETATM   13  C29 UNL     1       5.611  56.163  -6.779  1.00  0.00     0.027 C 
HETATM   14  C25 UNL     1       5.546  55.463  -9.235  1.00  0.00    -0.007 C 
HETATM   15  C28 UNL     1       4.273  54.131  -7.424  1.00  0.00     0.019 C 
HETATM   16  C24 UNL     1       4.662  55.119 -10.453  1.00  0.00     0.007 C 
HETATM   17  C26 UNL     1       6.739  54.497  -9.193  1.00  0.00     0.011 C 
HETATM   18  C23 UNL     1       3.478  56.076 -10.596  1.00  0.00     0.036 C 
BRANCH   7  19
HETATM   19  O2  UNL     1       2.576  56.761  -4.722  1.00  0.00    -0.363 OA
HETATM   20  H5  UNL     1       1.780  57.292  -4.882  1.00  0.00     0.213 HD
ENDBRANCH   7  19
ENDBRANCH   1   2
BRANCH   1  21
HETATM   21  C8  UNL     1       1.031  54.527 -10.134  1.00  0.00     0.266 C 
HETATM   22  O5  UNL     1       1.298  54.068 -11.234  1.00  0.00    -0.265 OA
BRANCH  21  23
HETATM   23  C9  UNL     1      -0.368  54.904  -9.677  1.00  0.00     0.114 C 
HETATM   24  C10 UNL     1      -0.371  55.840  -8.464  1.00  0.00     0.023 C 
BRANCH  23  25
HETATM   25  C11 UNL     1      -1.234  53.640  -9.464  1.00  0.00     0.159 C 
BRANCH  25  26
HETATM   26  O6  UNL     1      -0.365  52.592  -9.004  1.00  0.00    -0.390 OA
HETATM   27  H13 UNL     1      -0.295  52.686  -8.038  1.00  0.00     0.210 HD
ENDBRANCH  25  26
BRANCH  25  28
HETATM   28  C12 UNL     1      -2.010  53.153 -10.690  1.00  0.00    -0.058 C 
HETATM   29  C13 UNL     1      -3.386  53.756 -10.836  1.00  0.00     0.046 C 
HETATM   30  C14 UNL     1      -1.521  52.229 -11.545  1.00  0.00    -0.015 C 
BRANCH  30  31
HETATM   31  C15 UNL     1      -2.166  51.720 -12.821  1.00  0.00     0.032 C 
BRANCH  31  32
HETATM   32  C16 UNL     1      -3.248  50.673 -12.501  1.00  0.00     0.172 C 
BRANCH  32  33
HETATM   33  O7  UNL     1      -3.578  49.872 -13.630  1.00  0.00    -0.400 OA
HETATM   34  H21 UNL     1      -2.810  49.303 -13.805  1.00  0.00     0.209 HD
ENDBRANCH  32  33
ENDBRANCH  31  32
BRANCH  31  35
HETATM   35  C17 UNL     1      -1.075  51.183 -13.775  1.00  0.00     0.010 C 
BRANCH  35  36
HETATM   36  C18 UNL     1       0.084  52.169 -13.958  1.00  0.00     0.001 C 
BRANCH  36  37
HETATM   37  C19 UNL     1       1.028  51.785 -15.102  1.00  0.00     0.000 C 
BRANCH  37  38
HETATM   38  C20 UNL     1       2.341  51.177 -14.604  1.00  0.00    -0.000 C 
BRANCH  38  39
HETATM   39  C21 UNL     1       3.556  51.865 -15.232  1.00  0.00    -0.005 C 
HETATM   40  C22 UNL     1       3.134  52.856 -16.309  1.00  0.00     0.005 C 
ENDBRANCH  38  39
ENDBRANCH  37  38
ENDBRANCH  36  37
ENDBRANCH  35  36
ENDBRANCH  31  35
ENDBRANCH  30  31
ENDBRANCH  25  28
ENDBRANCH  23  25
ENDBRANCH  21  23
ENDBRANCH   1  21
TORSDOF 15
ENDMDL
