MODEL 1
REMARK minimizedAffinity -10.2160759
REMARK CNNscore 0.693533301
REMARK CNNaffinity 7.16559839
REMARK  7 active torsions:
REMARK  status: ('A' for Active; 'I' for Inactive)
REMARK    1  A    between atoms: C6_7  and  O1_8 
REMARK    2  A    between atoms: C8_11  and  C9_12 
REMARK    3  A    between atoms: C9_12  and  O3_13 
REMARK    4  A    between atoms: C9_12  and  C10_14 
REMARK    5  A    between atoms: C10_14  and  O4_16 
REMARK    6  A    between atoms: C10_14  and  C12_17 
REMARK    7  A    between atoms: C19_25  and  C20_26 
ROOT
HETATM    1  C12 UNL     1       4.382  66.630 -37.553  1.00  0.00     0.034 C 
HETATM    2  C13 UNL     1       3.225  65.761 -36.987  1.00  0.00     0.012 C 
HETATM    3  C14 UNL     1       2.118  66.732 -36.537  1.00  0.00     0.044 C 
HETATM    4  C15 UNL     1       2.428  68.054 -37.266  1.00  0.00     0.093 C 
HETATM    5  O5  UNL     1       2.162  67.957 -38.686  1.00  0.00    -0.363 OA
HETATM    6  C16 UNL     1       0.913  67.455 -39.155  1.00  0.00     0.263 C 
HETATM    7  C17 UNL     1       0.073  68.509 -39.743  1.00  0.00    -0.080 C 
HETATM    8  C18 UNL     1      -0.655  69.313 -40.266  1.00  0.00    -0.093 C 
HETATM    9  C19 UNL     1      -1.532  70.312 -40.928  1.00  0.00     0.121 C 
HETATM   10  C26 UNL     1      -2.038  71.398 -39.943  1.00  0.00     0.190 C 
HETATM   11  O6  UNL     1      -1.086  72.452 -39.721  1.00  0.00    -0.384 OA
HETATM   12  C27 UNL     1      -0.091  72.150 -38.749  1.00  0.00     0.122 C 
HETATM   13  C28 UNL     1       1.140  73.023 -39.010  1.00  0.00     0.033 C 
HETATM   14  C29 UNL     1       2.070  73.157 -37.796  1.00  0.00     0.013 C 
HETATM   15  C30 UNL     1       1.946  71.994 -36.773  1.00  0.00    -0.026 C 
HETATM   16  C31 UNL     1       2.810  72.360 -35.534  1.00  0.00     0.016 C 
HETATM   17  C32 UNL     1       0.464  71.957 -36.280  1.00  0.00     0.071 C 
HETATM   18  C33 UNL     1      -0.597  72.337 -37.329  1.00  0.00     0.045 C 
HETATM   19  C34 UNL     1       0.087  70.657 -35.600  1.00  0.00     0.154 C 
HETATM   20  O7  UNL     1      -0.838  70.599 -34.789  1.00  0.00    -0.293 OA
HETATM   21  C35 UNL     1       0.786  69.410 -35.952  1.00  0.00     0.057 C 
HETATM   22  C36 UNL     1       1.828  69.372 -36.797  1.00  0.00    -0.036 C 
HETATM   23  C37 UNL     1       2.440  70.630 -37.424  1.00  0.00     0.026 C 
HETATM   24  C38 UNL     1       3.992  70.573 -37.569  1.00  0.00     0.011 C 
HETATM   25  C39 UNL     1       4.552  69.210 -37.988  1.00  0.00     0.014 C 
HETATM   26  C40 UNL     1       3.999  68.086 -37.087  1.00  0.00    -0.002 C 
HETATM   27  C41 UNL     1       4.432  68.339 -35.615  1.00  0.00     0.019 C 
ENDROOT
BRANCH   1  28
HETATM   28  C10 UNL     1       5.833  66.068 -37.331  1.00  0.00     0.087 C 
HETATM   29  C11 UNL     1       6.892  66.596 -38.302  1.00  0.00     0.049 C 
BRANCH  28  30
HETATM   30  C9  UNL     1       6.303  66.187 -35.831  1.00  0.00     0.181 C 
BRANCH  30  31
HETATM   31  C8  UNL     1       5.609  65.322 -34.761  1.00  0.00     0.158 C 
HETATM   32  C2  UNL     1       5.519  65.809 -33.313  1.00  0.00     0.020 C 
HETATM   33  C1  UNL     1       6.846  66.353 -32.766  1.00  0.00     0.013 C 
HETATM   34  C3  UNL     1       5.181  64.506 -32.573  1.00  0.00     0.027 C 
HETATM   35  C4  UNL     1       3.687  64.294 -32.320  1.00  0.00     0.038 C 
HETATM   36  C7  UNL     1       5.766  63.395 -33.453  1.00  0.00     0.185 C 
HETATM   37  C5  UNL     1       3.450  62.842 -31.896  1.00  0.00     0.273 C 
HETATM   38  N1  UNL     1       3.768  61.890 -32.946  1.00  0.00     0.114 N 
HETATM   39  C6  UNL     1       4.720  62.351 -33.933  1.00  0.00     0.383 C 
HETATM   40  H10 UNL     1       4.101  61.006 -32.572  1.00  0.00     0.319 HD
HETATM   41  O2  UNL     1       6.323  64.063 -34.610  1.00  0.00    -0.373 OA
BRANCH  39  42
HETATM   42  O1  UNL     1       5.414  61.210 -34.423  1.00  0.00    -0.366 OA
HETATM   43  H12 UNL     1       6.004  61.562 -35.117  1.00  0.00     0.212 HD
ENDBRANCH  39  42
ENDBRANCH  30  31
BRANCH  30  44
HETATM   44  O3  UNL     1       7.714  65.834 -35.816  1.00  0.00    -0.390 OA
HETATM   45  H16 UNL     1       8.072  66.111 -36.681  1.00  0.00     0.210 HD
ENDBRANCH  30  44
ENDBRANCH  28  30
BRANCH  28  46
HETATM   46  O4  UNL     1       5.776  64.638 -37.562  1.00  0.00    -0.387 OA
HETATM   47  H20 UNL     1       6.678  64.275 -37.486  1.00  0.00     0.210 HD
ENDBRANCH  28  46
ENDBRANCH   1  28
BRANCH   9  48
HETATM   48  C20 UNL     1      -2.708  69.625 -41.611  1.00  0.00    -0.040 A 
HETATM   49  C21 UNL     1      -2.513  68.618 -42.572  1.00  0.00     0.008 A 
HETATM   50  C22 UNL     1      -3.604  67.959 -43.146  1.00  0.00     0.001 A 
HETATM   51  C23 UNL     1      -4.900  68.300 -42.771  1.00  0.00     0.000 A 
HETATM   52  C24 UNL     1      -5.111  69.306 -41.830  1.00  0.00     0.001 A 
HETATM   53  C25 UNL     1      -4.022  69.967 -41.254  1.00  0.00     0.008 A 
ENDBRANCH   9  48
TORSDOF 7
ENDMDL
