MODEL 1
REMARK minimizedAffinity -9.92698479
REMARK  6 active torsions:
REMARK  status: ('A' for Active; 'I' for Inactive)
REMARK    1  A    between atoms: C2_2  and  C30_31 
REMARK    2  A    between atoms: C3_3  and  C4_4 
REMARK    3  A    between atoms: C4_4  and  C5_5 
REMARK    4  A    between atoms: C5_5  and  C6_6 
REMARK    5  A    between atoms: C6_6  and  C8_8 
REMARK    6  A    between atoms: C30_31  and  O3_33 
ROOT
HETATM    1  C8  UNL     1      -2.769  48.655 -19.294  1.00  0.00    -0.002 C 
HETATM    2  C9  UNL     1      -3.420  47.463 -20.046  1.00  0.00     0.007 C 
HETATM    3  C10 UNL     1      -3.381  47.807 -21.554  1.00  0.00     0.015 C 
HETATM    4  C11 UNL     1      -2.954  49.290 -21.618  1.00  0.00    -0.013 C 
HETATM    5  C12 UNL     1      -4.264  50.126 -21.435  1.00  0.00     0.021 C 
HETATM    6  C13 UNL     1      -2.306  49.815 -22.894  1.00  0.00    -0.070 C 
HETATM    7  C14 UNL     1      -2.656  49.362 -24.112  1.00  0.00    -0.022 C 
HETATM    8  C15 UNL     1      -2.157  49.934 -25.406  1.00  0.00     0.034 C 
HETATM    9  C16 UNL     1      -0.993  50.939 -25.250  1.00  0.00     0.013 C 
HETATM   10  C17 UNL     1      -0.538  51.653 -26.581  1.00  0.00     0.018 C 
HETATM   11  C18 UNL     1       0.848  51.113 -27.001  1.00  0.00     0.023 C 
HETATM   12  C19 UNL     1      -1.500  51.414 -27.765  1.00  0.00     0.023 C 
HETATM   13  C20 UNL     1      -0.367  53.172 -26.416  1.00  0.00     0.135 C 
HETATM   14  O1  UNL     1      -0.595  53.955 -27.344  1.00  0.00    -0.297 OA
HETATM   15  C21 UNL     1       0.196  53.718 -25.128  1.00  0.00     0.080 C 
HETATM   16  C22 UNL     1       0.008  52.811 -23.924  1.00  0.00     0.017 C 
HETATM   17  C23 UNL     1      -1.223  51.882 -24.017  1.00  0.00    -0.031 C 
HETATM   18  C24 UNL     1      -2.518  52.720 -24.150  1.00  0.00     0.016 C 
HETATM   19  C25 UNL     1      -1.290  50.954 -22.736  1.00  0.00     0.024 C 
HETATM   20  C26 UNL     1      -1.436  51.712 -21.392  1.00  0.00     0.010 C 
HETATM   21  C27 UNL     1      -1.583  50.828 -20.129  1.00  0.00     0.011 C 
HETATM   22  C28 UNL     1      -1.947  49.360 -20.420  1.00  0.00    -0.029 C 
HETATM   23  C29 UNL     1      -0.630  48.556 -20.660  1.00  0.00     0.016 C 
ENDROOT
BRANCH   1  24
HETATM   24  C6  UNL     1      -2.034  48.361 -17.952  1.00  0.00    -0.014 C 
HETATM   25  C7  UNL     1      -2.858  48.555 -16.677  1.00  0.00     0.010 C 
BRANCH  24  26
HETATM   26  C5  UNL     1      -0.671  49.103 -17.863  1.00  0.00     0.008 C 
BRANCH  26  27
HETATM   27  C4  UNL     1      -0.509  50.175 -16.774  1.00  0.00     0.028 C 
BRANCH  27  28
HETATM   28  C3  UNL     1       0.626  51.126 -17.038  1.00  0.00    -0.013 C 
HETATM   29  C2  UNL     1       1.401  51.777 -16.148  1.00  0.00     0.008 C 
HETATM   30  C1  UNL     1       2.527  52.671 -16.580  1.00  0.00     0.055 C 
BRANCH  29  31
HETATM   31  C30 UNL     1       1.176  51.671 -14.688  1.00  0.00     0.171 C 
HETATM   32  O2  UNL     1       1.408  50.715 -13.973  1.00  0.00    -0.646 OA
BRANCH  31  33
HETATM   33  O3  UNL     1       0.646  52.804 -14.195  1.00  0.00    -0.773 OA
HETATM   34  H46 UNL     1       0.550  52.615 -13.238  1.00  0.00     0.167 HD
ENDBRANCH  31  33
ENDBRANCH  29  31
ENDBRANCH  27  28
ENDBRANCH  26  27
ENDBRANCH  24  26
ENDBRANCH   1  24
TORSDOF 6
ENDMDL
