MODEL 1
REMARK minimizedAffinity -7.12451935
REMARK CNNscore 0.721950471
REMARK CNNaffinity 6.57321024
REMARK  16 active torsions:
REMARK  status: ('A' for Active; 'I' for Inactive)
REMARK    1  A    between atoms: S1_2  and  C2_3 
REMARK    2  A    between atoms: C2_3  and  C3_4 
REMARK    3  A    between atoms: C3_4  and  C4_5 
REMARK    4  A    between atoms: C4_5  and  N1_6 
REMARK    5  A    between atoms: C4_5  and  C33_44 
REMARK       I    between atoms: N1_6  and  C5_7 
REMARK    6  A    between atoms: C5_7  and  C6_9 
REMARK    7  A    between atoms: C6_9  and  N2_11 
REMARK       I    between atoms: N2_11  and  C8_12 
REMARK    8  A    between atoms: C8_12  and  C9_14 
REMARK    9  A    between atoms: C9_14  and  C10_15 
REMARK   10  A    between atoms: C10_15  and  C11_16 
REMARK   11  A    between atoms: C11_16  and  O4_18 
REMARK   12  A    between atoms: O4_18  and  C12_19 
REMARK   13  A    between atoms: C12_19  and  C13_20 
REMARK   14  A    between atoms: C13_20  and  C14_22 
REMARK   15  A    between atoms: C14_22  and  O6_23 
REMARK   16  A    between atoms: C33_44  and  O10_46 
ROOT
HETATM    1  C12 UNL     1     -12.669  11.074  20.003  1.00  0.00     0.260 C 
ENDROOT
BRANCH   1   2
HETATM    2  O4  UNL     1     -11.316  11.486  19.834  1.00  0.00    -0.314 OA
BRANCH   2   3
HETATM    3  C11 UNL     1     -10.867  11.515  18.553  1.00  0.00     0.259 C 
HETATM    4  O3  UNL     1     -10.044  12.313  18.126  1.00  0.00    -0.265 OA
BRANCH   3   5
HETATM    5  C10 UNL     1     -11.580  10.492  17.707  1.00  0.00     0.120 C 
BRANCH   5   6
HETATM    6  C9  UNL     1     -10.782   9.195  17.652  1.00  0.00     0.112 C 
BRANCH   6   7
HETATM    7  C8  UNL     1     -10.297   8.910  16.247  1.00  0.00     0.218 C 
HETATM    8  N2  UNL     1      -9.713   7.677  16.096  1.00  0.00    -0.348 N 
HETATM    9  H14 UNL     1      -9.464   7.147  16.923  1.00  0.00     0.163 HD
HETATM   10  O2  UNL     1     -10.373   9.722  15.330  1.00  0.00    -0.274 OA
BRANCH   8  11
HETATM   11  C6  UNL     1      -9.151   7.236  14.816  1.00  0.00     0.172 C 
HETATM   12  C7  UNL     1     -10.270   6.803  13.878  1.00  0.00     0.042 C 
BRANCH  11  13
HETATM   13  C5  UNL     1      -8.125   6.098  15.021  1.00  0.00     0.240 C 
HETATM   14  N1  UNL     1      -8.009   5.229  13.954  1.00  0.00    -0.345 N 
HETATM   15  H9  UNL     1      -8.755   5.242  13.259  1.00  0.00     0.163 HD
HETATM   16  O1  UNL     1      -7.531   5.910  16.081  1.00  0.00    -0.271 OA
BRANCH  14  17
HETATM   17  C4  UNL     1      -7.163   4.040  14.020  1.00  0.00     0.183 C 
BRANCH  17  18
HETATM   18  C3  UNL     1      -5.729   4.322  13.548  1.00  0.00     0.046 C 
BRANCH  18  19
HETATM   19  C2  UNL     1      -5.565   4.190  12.032  1.00  0.00     0.076 C 
BRANCH  19  20
HETATM   20  S1  UNL     1      -3.859   3.761  11.542  1.00  0.00    -0.173 SA
HETATM   21  C1  UNL     1      -3.925   1.962  11.712  1.00  0.00     0.089 C 
ENDBRANCH  19  20
ENDBRANCH  18  19
ENDBRANCH  17  18
BRANCH  17  22
HETATM   22  C33 UNL     1      -7.802   2.918  13.205  1.00  0.00     0.163 C 
HETATM   23  O9  UNL     1      -7.332   1.807  13.013  1.00  0.00    -0.648 OA
BRANCH  22  24
HETATM   24  O10 UNL     1      -9.009   3.248  12.701  1.00  0.00    -0.775 OA
HETATM   25  H46 UNL     1      -9.285   2.457  12.190  1.00  0.00     0.167 HD
ENDBRANCH  22  24
ENDBRANCH  17  22
ENDBRANCH  14  17
ENDBRANCH  11  13
ENDBRANCH   8  11
ENDBRANCH   6   7
ENDBRANCH   5   6
ENDBRANCH   3   5
ENDBRANCH   2   3
ENDBRANCH   1   2
BRANCH   1  26
HETATM   26  C13 UNL     1     -13.234  10.738  21.389  1.00  0.00     0.185 C 
HETATM   27  O5  UNL     1     -14.269  11.290  21.776  1.00  0.00    -0.292 OA
BRANCH  26  28
HETATM   28  C14 UNL     1     -12.504   9.706  22.280  1.00  0.00     0.128 C 
HETATM   29  C15 UNL     1     -11.986  10.238  23.645  1.00  0.00     0.047 C 
HETATM   30  C16 UNL     1     -12.083   9.074  24.657  1.00  0.00     0.009 C 
HETATM   31  C17 UNL     1     -12.472   7.879  23.802  1.00  0.00     0.002 C 
HETATM   32  C18 UNL     1     -12.950   6.581  24.475  1.00  0.00     0.003 C 
HETATM   33  C31 UNL     1     -13.396   8.491  22.709  1.00  0.00     0.005 C 
HETATM   34  C19 UNL     1     -14.039   6.740  25.554  1.00  0.00     0.010 C 
HETATM   35  C28 UNL     1     -13.282   5.518  23.381  1.00  0.00     0.072 C 
HETATM   36  C20 UNL     1     -15.032   5.578  25.608  1.00  0.00     0.035 C 
HETATM   37  C21 UNL     1     -14.291   4.290  25.392  1.00  0.00    -0.067 C 
HETATM   38  C22 UNL     1     -14.126   3.409  26.393  1.00  0.00     0.053 C 
HETATM   39  C26 UNL     1     -13.674   4.121  24.004  1.00  0.00    -0.009 C 
HETATM   40  C23 UNL     1     -13.288   2.196  26.235  1.00  0.00     0.149 C 
HETATM   41  O7  UNL     1     -13.235   1.381  27.152  1.00  0.00    -0.293 OA
HETATM   42  C24 UNL     1     -12.533   1.993  24.945  1.00  0.00     0.084 C 
HETATM   43  C25 UNL     1     -12.359   3.296  24.169  1.00  0.00     0.022 C 
HETATM   44  C27 UNL     1     -14.643   3.309  23.120  1.00  0.00     0.021 C 
HETATM   45  C29 UNL     1     -14.208   6.178  22.339  1.00  0.00     0.133 C 
HETATM   46  O8  UNL     1     -15.343   5.789  22.078  1.00  0.00    -0.297 OA
HETATM   47  C30 UNL     1     -13.637   7.410  21.643  1.00  0.00     0.091 C 
HETATM   48  C32 UNL     1     -14.770   8.992  23.226  1.00  0.00     0.019 C 
BRANCH  28  49
HETATM   49  O6  UNL     1     -11.374   9.199  21.551  1.00  0.00    -0.381 OA
HETATM   50  H21 UNL     1     -11.069   9.890  20.922  1.00  0.00     0.211 HD
ENDBRANCH  28  49
ENDBRANCH  26  28
ENDBRANCH   1  26
TORSDOF 16
ENDMDL
