MODEL 1
REMARK minimizedAffinity -7.75002241
REMARK CNNscore 0.780635536
REMARK CNNaffinity 6.99550676
REMARK  6 active torsions:
REMARK  status: ('A' for Active; 'I' for Inactive)
REMARK    1  A    between atoms: C2_2  and  C30_31 
REMARK    2  A    between atoms: C3_3  and  C4_4 
REMARK    3  A    between atoms: C4_4  and  C5_5 
REMARK    4  A    between atoms: C5_5  and  C6_6 
REMARK    5  A    between atoms: C6_6  and  C8_8 
REMARK    6  A    between atoms: C30_31  and  O3_33 
ROOT
HETATM    1  C8  UNL     1       4.715  55.308  -8.896  1.00  0.00    -0.002 C 
HETATM    2  C9  UNL     1       4.035  56.548  -8.232  1.00  0.00     0.007 C 
HETATM    3  C10 UNL     1       2.508  56.392  -8.418  1.00  0.00     0.015 C 
HETATM    4  C11 UNL     1       2.359  55.266  -9.455  1.00  0.00    -0.013 C 
HETATM    5  C12 UNL     1       2.578  55.932 -10.860  1.00  0.00     0.021 C 
HETATM    6  C13 UNL     1       1.019  54.525  -9.560  1.00  0.00    -0.070 C 
HETATM    7  C14 UNL     1      -0.131  55.213  -9.625  1.00  0.00    -0.022 C 
HETATM    8  C15 UNL     1      -1.425  54.631 -10.082  1.00  0.00     0.034 C 
HETATM    9  C16 UNL     1      -1.252  53.350 -10.943  1.00  0.00     0.013 C 
HETATM   10  C17 UNL     1      -2.638  52.736 -11.385  1.00  0.00     0.018 C 
HETATM   11  C18 UNL     1      -2.542  52.215 -12.838  1.00  0.00     0.023 C 
HETATM   12  C19 UNL     1      -3.813  53.735 -11.364  1.00  0.00     0.023 C 
HETATM   13  C20 UNL     1      -3.035  51.586 -10.451  1.00  0.00     0.135 C 
HETATM   14  O1  UNL     1      -3.788  50.681 -10.812  1.00  0.00    -0.297 OA
HETATM   15  C21 UNL     1      -2.550  51.649  -9.022  1.00  0.00     0.080 C 
HETATM   16  C22 UNL     1      -1.046  51.885  -8.891  1.00  0.00     0.017 C 
HETATM   17  C23 UNL     1      -0.313  52.334 -10.199  1.00  0.00    -0.031 C 
HETATM   18  C24 UNL     1      -0.039  51.053 -11.026  1.00  0.00     0.016 C 
HETATM   19  C25 UNL     1       1.075  53.008  -9.791  1.00  0.00     0.024 C 
HETATM   20  C26 UNL     1       2.311  52.681 -10.665  1.00  0.00     0.010 C 
HETATM   21  C27 UNL     1       3.658  53.198 -10.088  1.00  0.00     0.011 C 
HETATM   22  C28 UNL     1       3.519  54.304  -9.016  1.00  0.00    -0.029 C 
HETATM   23  C29 UNL     1       3.303  53.666  -7.603  1.00  0.00     0.016 C 
ENDROOT
BRANCH   1  24
HETATM   24  C6  UNL     1       6.015  54.871  -8.163  1.00  0.00    -0.014 C 
HETATM   25  C7  UNL     1       7.024  54.208  -9.106  1.00  0.00     0.010 C 
BRANCH  24  26
HETATM   26  C5  UNL     1       6.694  56.033  -7.390  1.00  0.00     0.008 C 
BRANCH  26  27
HETATM   27  C4  UNL     1       7.073  55.723  -5.936  1.00  0.00     0.028 C 
BRANCH  27  28
HETATM   28  C3  UNL     1       8.342  56.437  -5.556  1.00  0.00    -0.013 C 
HETATM   29  C2  UNL     1       8.482  57.700  -5.102  1.00  0.00     0.008 C 
HETATM   30  C1  UNL     1       7.378  58.689  -4.865  1.00  0.00     0.055 C 
BRANCH  29  31
HETATM   31  C30 UNL     1       9.871  58.142  -4.803  1.00  0.00     0.171 C 
HETATM   32  O2  UNL     1      10.445  59.110  -5.271  1.00  0.00    -0.646 OA
BRANCH  31  33
HETATM   33  O3  UNL     1      10.485  57.338  -3.921  1.00  0.00    -0.773 OA
HETATM   34  H46 UNL     1      11.371  57.744  -3.824  1.00  0.00     0.167 HD
ENDBRANCH  31  33
ENDBRANCH  29  31
ENDBRANCH  27  28
ENDBRANCH  26  27
ENDBRANCH  24  26
ENDBRANCH   1  24
TORSDOF 6
ENDMDL
