MODEL 1
REMARK minimizedAffinity -7.63021612
REMARK CNNscore 0.57682097
REMARK CNNaffinity 7.62294054
REMARK  12 active torsions:
REMARK  status: ('A' for Active; 'I' for Inactive)
REMARK    1  A    between atoms: O1_2  and  C2_3 
REMARK    2  A    between atoms: C2_3  and  C3_4 
REMARK    3  A    between atoms: C2_3  and  C7_8 
REMARK    4  A    between atoms: C7_8  and  C8_9 
REMARK    5  A    between atoms: C8_9  and  C10_11 
REMARK    6  A    between atoms: C28_30  and  O3_31 
REMARK    7  A    between atoms: O3_31  and  C29_32 
REMARK    8  A    between atoms: C30_34  and  C31_35 
REMARK    9  A    between atoms: C31_35  and  O5_36 
REMARK   10  A    between atoms: C32_37  and  O6_38 
REMARK   11  A    between atoms: C33_39  and  O7_40 
REMARK   12  A    between atoms: C34_41  and  O8_42 
ROOT
HETATM    1  C10 UNL     1       3.158  55.384  -6.745  1.00  0.00    -0.002 C 
HETATM    2  C11 UNL     1       2.470  54.829  -5.457  1.00  0.00     0.006 C 
HETATM    3  C12 UNL     1       1.067  54.332  -5.846  1.00  0.00     0.011 C 
HETATM    4  C13 UNL     1       1.084  54.267  -7.385  1.00  0.00    -0.029 C 
HETATM    5  C14 UNL     1       1.769  52.908  -7.744  1.00  0.00     0.016 C 
HETATM    6  C15 UNL     1      -0.315  54.379  -8.069  1.00  0.00     0.028 C 
HETATM    7  C16 UNL     1      -1.252  53.241  -7.706  1.00  0.00    -0.021 C 
HETATM    8  C17 UNL     1      -1.967  52.588  -8.639  1.00  0.00     0.008 C 
HETATM    9  C18 UNL     1      -1.852  52.948 -10.118  1.00  0.00     0.092 C 
HETATM   10  O2  UNL     1      -2.526  54.226 -10.206  1.00  0.00    -0.374 OA
HETATM   11  C19 UNL     1      -1.546  55.266 -10.116  1.00  0.00     0.179 C 
HETATM   12  C20 UNL     1      -0.220  54.621  -9.645  1.00  0.00    -0.004 C 
HETATM   13  C21 UNL     1       0.957  55.540 -10.070  1.00  0.00     0.014 C 
HETATM   14  C22 UNL     1       2.248  55.481  -9.234  1.00  0.00     0.011 C 
HETATM   15  C23 UNL     1       1.947  55.540  -7.727  1.00  0.00    -0.032 C 
HETATM   16  C24 UNL     1       1.222  56.887  -7.413  1.00  0.00     0.016 C 
HETATM   17  C25 UNL     1      -0.350  53.260 -10.375  1.00  0.00     0.036 C 
HETATM   18  C26 UNL     1       0.013  53.219 -11.857  1.00  0.00     0.011 C 
HETATM   19  C27 UNL     1      -0.295  51.853 -12.476  1.00  0.00     0.033 C 
HETATM   20  C28 UNL     1      -1.379  51.046 -11.740  1.00  0.00     0.136 C 
HETATM   21  C35 UNL     1      -2.500  51.958 -11.165  1.00  0.00     0.014 C 
HETATM   22  C36 UNL     1      -3.223  52.713 -12.321  1.00  0.00     0.021 C 
HETATM   23  C37 UNL     1      -3.596  51.066 -10.533  1.00  0.00     0.021 C 
ENDROOT
BRANCH  20  24
HETATM   24  O3  UNL     1      -1.965  50.093 -12.637  1.00  0.00    -0.352 OA
BRANCH  24  25
HETATM   25  C29 UNL     1      -1.042  49.506 -13.567  1.00  0.00     0.292 C 
HETATM   26  O4  UNL     1      -0.973  50.267 -14.768  1.00  0.00    -0.348 OA
HETATM   27  C30 UNL     1      -1.849  49.849 -15.824  1.00  0.00     0.179 C 
HETATM   28  C32 UNL     1      -1.536  48.402 -16.269  1.00  0.00     0.180 C 
HETATM   29  C33 UNL     1      -1.059  47.499 -15.120  1.00  0.00     0.183 C 
HETATM   30  C34 UNL     1      -1.470  48.026 -13.755  1.00  0.00     0.204 C 
BRANCH  27  31
HETATM   31  C31 UNL     1      -3.326  50.108 -15.471  1.00  0.00     0.198 C 
BRANCH  31  32
HETATM   32  O5  UNL     1      -3.612  51.498 -15.379  1.00  0.00    -0.398 OA
HETATM   33  H48 UNL     1      -4.504  51.582 -15.003  1.00  0.00     0.209 HD
ENDBRANCH  31  32
ENDBRANCH  27  31
BRANCH  28  34
HETATM   34  O6  UNL     1      -0.506  48.427 -17.278  1.00  0.00    -0.390 OA
HETATM   35  H50 UNL     1       0.257  47.954 -16.875  1.00  0.00     0.210 HD
ENDBRANCH  28  34
BRANCH  29  36
HETATM   36  O7  UNL     1       0.380  47.350 -15.171  1.00  0.00    -0.390 OA
HETATM   37  H52 UNL     1       0.652  47.119 -14.257  1.00  0.00     0.210 HD
ENDBRANCH  29  36
BRANCH  30  38
HETATM   38  O8  UNL     1      -0.850  47.199 -12.747  1.00  0.00    -0.388 OA
HETATM   39  H54 UNL     1      -1.487  46.496 -12.524  1.00  0.00     0.210 HD
ENDBRANCH  30  38
ENDBRANCH  24  25
ENDBRANCH  20  24
BRANCH   1  40
HETATM   40  C8  UNL     1       4.045  56.628  -6.427  1.00  0.00    -0.011 C 
HETATM   41  C9  UNL     1       3.354  57.945  -6.794  1.00  0.00     0.010 C 
BRANCH  40  42
HETATM   42  C7  UNL     1       5.420  56.571  -7.156  1.00  0.00     0.040 C 
BRANCH  42  43
HETATM   43  C2  UNL     1       6.387  55.554  -6.509  1.00  0.00     0.144 C 
BRANCH  43  44
HETATM   44  O1  UNL     1       7.700  56.108  -6.453  1.00  0.00    -0.387 OA
HETATM   45  C1  UNL     1       7.926  56.907  -5.299  1.00  0.00     0.202 C 
ENDBRANCH  43  44
BRANCH  43  46
HETATM   46  C3  UNL     1       6.357  54.246  -7.269  1.00  0.00     0.007 C 
HETATM   47  C4  UNL     1       6.355  54.024  -8.601  1.00  0.00    -0.089 C 
HETATM   48  C5  UNL     1       6.313  55.094  -9.657  1.00  0.00     0.042 C 
HETATM   49  C6  UNL     1       6.384  52.619  -9.147  1.00  0.00     0.042 C 
ENDBRANCH  43  46
ENDBRANCH  42  43
ENDBRANCH  40  42
ENDBRANCH   1  40
TORSDOF 12
ENDMDL
