MODEL 1
REMARK minimizedAffinity -7.81405449
REMARK CNNscore 0.423804015
REMARK CNNaffinity 6.95666456
REMARK  19 active torsions:
REMARK  status: ('A' for Active; 'I' for Inactive)
REMARK    1  A    between atoms: C3_3  and  C4_4 
REMARK    2  A    between atoms: C5_5  and  C6_6 
REMARK    3  A    between atoms: C7_8  and  O2_9 
REMARK    4  A    between atoms: C7_8  and  C8_10 
REMARK    5  A    between atoms: C8_10  and  C10_12 
REMARK       I    between atoms: C10_12  and  N1_14 
REMARK    6  A    between atoms: N1_14  and  C11_15 
REMARK    7  A    between atoms: C11_15  and  C12_16 
REMARK    8  A    between atoms: C13_17  and  C14_18 
REMARK    9  A    between atoms: C15_19  and  C17_21 
REMARK   10  A    between atoms: C17_21  and  O4_22 
REMARK   11  A    between atoms: C17_21  and  C19_24 
REMARK   12  A    between atoms: C19_24  and  C21_26 
REMARK   13  A    between atoms: C23_28  and  O5_29 
REMARK   14  A    between atoms: C24_30  and  C25_31 
REMARK   15  A    between atoms: C26_32  and  C27_33 
REMARK   16  A    between atoms: C28_34  and  C29_35 
REMARK   17  A    between atoms: C30_36  and  C31_37 
REMARK   18  A    between atoms: C31_37  and  O7_39 
REMARK   19  A    between atoms: C33_42  and  O9_43 
ROOT
HETATM    1  C12 UNL     1      -6.876  47.249 -26.580  1.00  0.00    -0.007 C 
HETATM    2  C13 UNL     1      -6.061  48.293 -26.356  1.00  0.00    -0.002 C 
ENDROOT
BRANCH   2   3
HETATM    3  C14 UNL     1      -5.154  48.325 -25.229  1.00  0.00     0.005 C 
HETATM    4  C15 UNL     1      -3.830  48.586 -25.243  1.00  0.00    -0.055 C 
HETATM    5  C16 UNL     1      -3.083  48.529 -23.930  1.00  0.00     0.046 C 
BRANCH   4   6
HETATM    6  C17 UNL     1      -3.033  48.969 -26.489  1.00  0.00     0.155 C 
BRANCH   6   7
HETATM    7  O4  UNL     1      -3.418  48.142 -27.595  1.00  0.00    -0.386 OA
HETATM    8  C18 UNL     1      -4.117  48.856 -28.610  1.00  0.00     0.202 C 
ENDBRANCH   6   7
BRANCH   6   9
HETATM    9  C19 UNL     1      -3.170  50.478 -26.864  1.00  0.00     0.044 C 
HETATM   10  C20 UNL     1      -3.701  51.246 -25.635  1.00  0.00     0.015 C 
BRANCH   9  11
HETATM   11  C21 UNL     1      -1.872  51.149 -27.364  1.00  0.00     0.131 C 
HETATM   12  C22 UNL     1      -1.896  52.671 -27.362  1.00  0.00     0.067 C 
HETATM   13  C23 UNL     1      -0.426  52.989 -27.263  1.00  0.00     0.153 C 
HETATM   14  C24 UNL     1       0.059  51.935 -26.257  1.00  0.00     0.173 C 
HETATM   15  O8  UNL     1      -0.750  50.767 -26.529  1.00  0.00    -0.374 OA
BRANCH  13  16
HETATM   16  O5  UNL     1      -0.163  54.337 -26.930  1.00  0.00    -0.393 OA
HETATM   17  H35 UNL     1      -0.527  54.889 -27.641  1.00  0.00     0.210 HD
ENDBRANCH  13  16
BRANCH  14  18
HETATM   18  C25 UNL     1      -0.041  52.150 -24.767  1.00  0.00     0.007 C 
HETATM   19  C26 UNL     1      -0.745  51.450 -23.864  1.00  0.00    -0.001 C 
BRANCH  19  20
HETATM   20  C27 UNL     1      -0.774  51.799 -22.460  1.00  0.00    -0.000 C 
HETATM   21  C28 UNL     1      -0.138  51.089 -21.517  1.00  0.00     0.000 C 
BRANCH  21  22
HETATM   22  C29 UNL     1      -0.211  51.430 -20.112  1.00  0.00     0.007 C 
HETATM   23  C30 UNL     1      -0.438  50.521 -19.156  1.00  0.00     0.081 C 
BRANCH  23  24
HETATM   24  C31 UNL     1      -0.529  50.951 -17.754  1.00  0.00     0.165 C 
HETATM   25  O6  UNL     1      -1.515  50.955 -17.039  1.00  0.00    -0.647 OA
BRANCH  24  26
HETATM   26  O7  UNL     1       0.674  51.355 -17.318  1.00  0.00    -0.773 OA
HETATM   27  H43 UNL     1       0.512  51.593 -16.381  1.00  0.00     0.167 HD
ENDBRANCH  24  26
ENDBRANCH  23  24
ENDBRANCH  21  22
ENDBRANCH  19  20
ENDBRANCH  14  18
ENDBRANCH   9  11
ENDBRANCH   6   9
ENDBRANCH   4   6
ENDBRANCH   2   3
BRANCH   1  28
HETATM   28  C11 UNL     1      -7.797  47.111 -27.749  1.00  0.00     0.149 C 
BRANCH  28  29
HETATM   29  N1  UNL     1      -9.150  47.050 -27.254  1.00  0.00    -0.357 N 
HETATM   30  C10 UNL     1      -9.568  46.059 -26.391  1.00  0.00     0.227 C 
HETATM   31  O3  UNL     1      -8.834  45.144 -26.025  1.00  0.00    -0.273 OA
HETATM   32  H14 UNL     1      -9.715  47.886 -27.341  1.00  0.00     0.162 HD
BRANCH  30  33
HETATM   33  C8  UNL     1     -10.999  46.220 -25.888  1.00  0.00     0.136 C 
HETATM   34  C9  UNL     1     -11.620  47.509 -26.430  1.00  0.00     0.026 C 
BRANCH  33  35
HETATM   35  C7  UNL     1     -11.847  44.949 -26.168  1.00  0.00     0.176 C 
HETATM   36  O1  UNL     1     -13.215  45.329 -25.971  1.00  0.00    -0.344 OA
HETATM   37  C6  UNL     1     -14.123  44.278 -26.291  1.00  0.00     0.158 C 
HETATM   38  C34 UNL     1     -14.203  44.087 -27.837  1.00  0.00     0.008 C 
HETATM   39  C33 UNL     1     -12.836  44.451 -28.492  1.00  0.00     0.134 C 
HETATM   40  C35 UNL     1     -14.508  42.591 -28.109  1.00  0.00     0.020 C 
HETATM   41  C36 UNL     1     -15.335  44.908 -28.496  1.00  0.00     0.020 C 
HETATM   42  C32 UNL     1     -11.647  44.285 -27.549  1.00  0.00     0.101 C 
BRANCH  37  43
HETATM   43  C5  UNL     1     -15.420  44.619 -25.604  1.00  0.00     0.006 C 
HETATM   44  C4  UNL     1     -16.629  44.554 -26.186  1.00  0.00    -0.002 C 
BRANCH  44  45
HETATM   45  C3  UNL     1     -17.852  44.871 -25.488  1.00  0.00    -0.005 C 
HETATM   46  C2  UNL     1     -18.259  46.128 -25.263  1.00  0.00    -0.031 C 
HETATM   47  C1  UNL     1     -19.523  46.471 -24.544  1.00  0.00     0.036 C 
ENDBRANCH  44  45
ENDBRANCH  37  43
BRANCH  39  48
HETATM   48  O9  UNL     1     -12.835  45.791 -28.994  1.00  0.00    -0.395 OA
HETATM   49  H47 UNL     1     -12.098  45.872 -29.624  1.00  0.00     0.210 HD
ENDBRANCH  39  48
BRANCH  35  50
HETATM   50  O2  UNL     1     -11.514  43.981 -25.160  1.00  0.00    -0.364 OA
HETATM   51  H9  UNL     1     -10.574  43.749 -25.301  1.00  0.00     0.213 HD
ENDBRANCH  35  50
ENDBRANCH  33  35
ENDBRANCH  30  33
ENDBRANCH  28  29
ENDBRANCH   1  28
TORSDOF 19
ENDMDL
