MODEL 1
REMARK minimizedAffinity -8.15991688
REMARK CNNscore 0.489327133
REMARK CNNaffinity 6.87677336
REMARK  14 active torsions:
REMARK  status: ('A' for Active; 'I' for Inactive)
REMARK    1  A    between atoms: C2_2  and  C30_34 
REMARK    2  A    between atoms: C3_3  and  C4_4 
REMARK    3  A    between atoms: C4_4  and  C5_5 
REMARK    4  A    between atoms: C5_5  and  C6_6 
REMARK    5  A    between atoms: C6_6  and  C8_8 
REMARK    6  A    between atoms: C16_16  and  C17_17 
REMARK    7  A    between atoms: C17_17  and  O1_19 
REMARK    8  A    between atoms: C17_17  and  C19_20 
REMARK    9  A    between atoms: C19_20  and  O2_21 
REMARK   10  A    between atoms: C20_22  and  C21_23 
REMARK   11  A    between atoms: C21_23  and  C22_24 
REMARK   12  A    between atoms: C22_24  and  C23_25 
REMARK   13  A    between atoms: C23_25  and  O4_27 
REMARK   14  A    between atoms: C30_34  and  O5_35 
ROOT
HETATM    1  C8  UNL     1      -1.334  51.339 -20.225  1.00  0.00    -0.002 C 
HETATM    2  C9  UNL     1      -0.197  50.959 -21.179  1.00  0.00     0.006 C 
HETATM    3  C10 UNL     1      -0.910  50.118 -22.220  1.00  0.00     0.011 C 
HETATM    4  C11 UNL     1      -1.810  49.158 -21.396  1.00  0.00    -0.032 C 
HETATM    5  C12 UNL     1      -0.939  47.909 -21.082  1.00  0.00     0.016 C 
HETATM    6  C13 UNL     1      -3.023  48.704 -22.273  1.00  0.00     0.004 C 
HETATM    7  C14 UNL     1      -3.875  47.546 -21.632  1.00  0.00     0.007 C 
HETATM    8  C15 UNL     1      -5.333  47.328 -22.141  1.00  0.00     0.009 C 
HETATM    9  C16 UNL     1      -6.029  48.576 -22.771  1.00  0.00     0.031 C 
HETATM   10  C20 UNL     1      -4.975  49.215 -23.685  1.00  0.00    -0.025 A 
HETATM   11  C24 UNL     1      -4.373  50.568 -23.863  1.00  0.00     0.021 A 
HETATM   12  C25 UNL     1      -3.963  49.843 -22.621  1.00  0.00    -0.027 A 
HETATM   13  C26 UNL     1      -4.267  50.793 -21.458  1.00  0.00     0.011 C 
HETATM   14  C27 UNL     1      -3.718  50.362 -20.106  1.00  0.00     0.011 C 
HETATM   15  C28 UNL     1      -2.202  50.016 -20.101  1.00  0.00    -0.032 C 
HETATM   16  C29 UNL     1      -1.945  49.249 -18.791  1.00  0.00     0.016 C 
ENDROOT
BRANCH   1  17
HETATM   17  C6  UNL     1      -0.826  52.160 -19.000  1.00  0.00    -0.014 C 
HETATM   18  C7  UNL     1      -0.274  53.559 -19.301  1.00  0.00     0.010 C 
BRANCH  17  19
HETATM   19  C5  UNL     1       0.163  51.409 -18.081  1.00  0.00     0.008 C 
BRANCH  19  20
HETATM   20  C4  UNL     1       1.260  52.303 -17.490  1.00  0.00     0.028 C 
BRANCH  20  21
HETATM   21  C3  UNL     1       1.680  51.811 -16.132  1.00  0.00    -0.022 C 
HETATM   22  C2  UNL     1       2.855  52.007 -15.499  1.00  0.00    -0.064 C 
HETATM   23  C1  UNL     1       4.032  52.755 -16.066  1.00  0.00     0.045 C 
BRANCH  22  24
HETATM   24  C30 UNL     1       3.093  51.428 -14.126  1.00  0.00     0.197 C 
BRANCH  24  25
HETATM   25  O5  UNL     1       2.741  50.053 -14.139  1.00  0.00    -0.397 OA
HETATM   26  H50 UNL     1       3.247  49.650 -14.867  1.00  0.00     0.209 HD
ENDBRANCH  24  25
ENDBRANCH  22  24
ENDBRANCH  20  21
ENDBRANCH  19  20
ENDBRANCH  17  19
ENDBRANCH   1  17
BRANCH  10  27
HETATM   27  C21 UNL     1      -4.540  48.333 -24.892  1.00  0.00     0.021 C 
BRANCH  27  28
HETATM   28  C22 UNL     1      -3.582  49.045 -25.855  1.00  0.00     0.111 C 
BRANCH  28  29
HETATM   29  C23 UNL     1      -4.008  48.852 -27.284  1.00  0.00     0.139 C 
HETATM   30  O3  UNL     1      -4.765  48.008 -27.732  1.00  0.00    -0.650 OA
BRANCH  29  31
HETATM   31  O4  UNL     1      -3.411  49.738 -28.108  1.00  0.00    -0.776 OA
HETATM   32  H38 UNL     1      -3.752  49.508 -28.996  1.00  0.00     0.167 HD
ENDBRANCH  29  31
ENDBRANCH  28  29
ENDBRANCH  27  28
ENDBRANCH  10  27
BRANCH   9  33
HETATM   33  C17 UNL     1      -7.423  48.292 -23.406  1.00  0.00     0.080 C 
HETATM   34  C18 UNL     1      -7.300  47.201 -24.484  1.00  0.00     0.048 C 
BRANCH  33  35
HETATM   35  O1  UNL     1      -8.355  47.853 -22.409  1.00  0.00    -0.388 OA
HETATM   36  H30 UNL     1      -9.187  47.612 -22.852  1.00  0.00     0.210 HD
ENDBRANCH  33  35
BRANCH  33  37
HETATM   37  C19 UNL     1      -8.022  49.571 -24.051  1.00  0.00     0.201 C 
BRANCH  37  38
HETATM   38  O2  UNL     1      -8.438  49.387 -25.397  1.00  0.00    -0.398 OA
HETATM   39  H33 UNL     1      -9.260  48.869 -25.391  1.00  0.00     0.209 HD
ENDBRANCH  37  38
ENDBRANCH  33  37
ENDBRANCH   9  33
TORSDOF 14
ENDMDL
