MODEL 1
REMARK minimizedAffinity -10.5188484
REMARK  8 active torsions:
REMARK  status: ('A' for Active; 'I' for Inactive)
REMARK    1  A    between atoms: C2_2  and  C3_3 
REMARK    2  A    between atoms: C2_2  and  C27_30 
REMARK    3  A    between atoms: C3_3  and  C4_4 
REMARK    4  A    between atoms: C4_4  and  C5_5 
REMARK    5  A    between atoms: C5_5  and  C7_7 
REMARK    6  A    between atoms: C26_28  and  O3_29 
REMARK    7  A    between atoms: C27_30  and  C29_32 
REMARK    8  A    between atoms: C29_32  and  O5_34 
ROOT
HETATM    1  C7  UNL     1      -0.732  51.169 -23.197  1.00  0.00    -0.002 C 
HETATM    2  C8  UNL     1       0.098  52.476 -23.297  1.00  0.00     0.006 C 
HETATM    3  C9  UNL     1       0.480  52.857 -21.861  1.00  0.00     0.010 C 
HETATM    4  C10 UNL     1       0.207  51.590 -21.049  1.00  0.00     0.027 C 
HETATM    5  C11 UNL     1       0.196  51.572 -19.532  1.00  0.00    -0.036 C 
HETATM    6  C12 UNL     1      -0.421  50.562 -18.866  1.00  0.00     0.002 C 
HETATM    7  C13 UNL     1      -1.245  49.559 -19.657  1.00  0.00     0.157 C 
HETATM    8  O1  UNL     1      -1.865  48.662 -19.086  1.00  0.00    -0.293 OA
HETATM    9  C14 UNL     1      -1.287  49.634 -21.174  1.00  0.00     0.093 C 
HETATM   10  C15 UNL     1      -1.103  51.062 -21.685  1.00  0.00    -0.026 C 
HETATM   11  C16 UNL     1      -2.336  51.909 -21.304  1.00  0.00     0.016 C 
HETATM   12  C17 UNL     1      -0.334  50.375 -17.334  1.00  0.00    -0.008 C 
HETATM   13  C18 UNL     1      -1.682  50.868 -16.749  1.00  0.00     0.021 C 
HETATM   14  C19 UNL     1      -0.113  48.879 -16.928  1.00  0.00     0.022 C 
HETATM   15  C20 UNL     1       0.724  48.635 -15.674  1.00  0.00     0.080 C 
HETATM   16  C21 UNL     1       0.610  49.766 -14.690  1.00  0.00     0.131 C 
HETATM   17  O2  UNL     1       0.346  49.566 -13.505  1.00  0.00    -0.298 OA
HETATM   18  C22 UNL     1       0.927  51.160 -15.209  1.00  0.00     0.056 C 
HETATM   19  C23 UNL     1       2.286  51.584 -14.651  1.00  0.00     0.018 C 
HETATM   20  C24 UNL     1       0.883  51.183 -16.757  1.00  0.00     0.012 C 
HETATM   21  C25 UNL     1       0.892  52.613 -17.295  1.00  0.00     0.042 C 
HETATM   22  C26 UNL     1       0.991  52.641 -18.820  1.00  0.00     0.148 C 
ENDROOT
BRANCH   1  23
HETATM   23  C5  UNL     1      -1.785  51.005 -24.333  1.00  0.00    -0.014 C 
HETATM   24  C6  UNL     1      -2.673  52.226 -24.595  1.00  0.00     0.010 C 
BRANCH  23  25
HETATM   25  C4  UNL     1      -2.624  49.718 -24.138  1.00  0.00     0.009 C 
BRANCH  25  26
HETATM   26  C3  UNL     1      -2.633  48.752 -25.341  1.00  0.00     0.034 C 
BRANCH  26  27
HETATM   27  C2  UNL     1      -3.904  48.593 -26.159  1.00  0.00    -0.075 C 
HETATM   28  C1  UNL     1      -5.104  48.362 -25.593  1.00  0.00     0.015 C 
BRANCH  27  29
HETATM   29  C27 UNL     1      -3.779  48.647 -27.684  1.00  0.00     0.107 C 
HETATM   30  C28 UNL     1      -4.983  48.037 -28.401  1.00  0.00     0.026 C 
BRANCH  29  31
HETATM   31  C29 UNL     1      -3.524  50.061 -28.205  1.00  0.00     0.147 C 
HETATM   32  O4  UNL     1      -3.139  51.039 -27.586  1.00  0.00    -0.650 OA
BRANCH  31  33
HETATM   33  O5  UNL     1      -3.799  50.173 -29.524  1.00  0.00    -0.776 OA
HETATM   34  H42 UNL     1      -3.595  51.112 -29.723  1.00  0.00     0.167 HD
ENDBRANCH  31  33
ENDBRANCH  29  31
ENDBRANCH  27  29
ENDBRANCH  26  27
ENDBRANCH  25  26
ENDBRANCH  23  25
ENDBRANCH   1  23
BRANCH  22  35
HETATM   35  O3  UNL     1       0.531  53.922 -19.231  1.00  0.00    -0.391 OA
HETATM   36  H37 UNL     1       1.104  54.588 -18.816  1.00  0.00     0.210 HD
ENDBRANCH  22  35
TORSDOF 8
ENDMDL
