MODEL 1
REMARK minimizedAffinity -9.08882236
REMARK  8 active torsions:
REMARK  status: ('A' for Active; 'I' for Inactive)
REMARK    1  A    between atoms: C2_2  and  C3_3 
REMARK    2  A    between atoms: C3_3  and  C5_5 
REMARK    3  A    between atoms: C6_6  and  C7_7 
REMARK    4  A    between atoms: C7_7  and  O1_9 
REMARK    5  A    between atoms: C7_7  and  C9_10 
REMARK    6  A    between atoms: C10_11  and  O2_12 
REMARK    7  A    between atoms: C26_29  and  C27_30 
REMARK    8  A    between atoms: C27_30  and  O4_31 
ROOT
HETATM    1  C9  UNL     1      -0.025  51.198 -20.221  1.00  0.00     0.063 C 
HETATM    2  C10 UNL     1       0.192  51.604 -21.696  1.00  0.00     0.126 C 
HETATM    3  C11 UNL     1      -1.099  52.289 -22.126  1.00  0.00     0.038 C 
HETATM    4  C12 UNL     1      -2.218  51.685 -21.258  1.00  0.00     0.003 C 
HETATM    5  C13 UNL     1      -3.392  51.068 -22.035  1.00  0.00    -0.004 C 
HETATM    6  C14 UNL     1      -4.203  52.119 -22.826  1.00  0.00     0.010 C 
HETATM    7  C15 UNL     1      -5.037  51.509 -23.964  1.00  0.00     0.035 C 
HETATM    8  C16 UNL     1      -5.423  50.087 -23.649  1.00  0.00    -0.068 C 
HETATM    9  C17 UNL     1      -6.713  49.749 -23.479  1.00  0.00     0.053 C 
HETATM   10  C18 UNL     1      -7.109  48.379 -23.078  1.00  0.00     0.149 C 
HETATM   11  O3  UNL     1      -8.303  48.086 -23.046  1.00  0.00    -0.293 OA
HETATM   12  C19 UNL     1      -6.031  47.374 -22.758  1.00  0.00     0.084 C 
HETATM   13  C20 UNL     1      -4.704  48.043 -22.403  1.00  0.00     0.022 C 
HETATM   14  C21 UNL     1      -4.258  49.107 -23.441  1.00  0.00    -0.016 C 
HETATM   15  C22 UNL     1      -3.938  48.425 -24.789  1.00  0.00     0.020 C 
HETATM   16  C23 UNL     1      -2.980  49.908 -22.967  1.00  0.00     0.002 C 
HETATM   17  C24 UNL     1      -1.828  49.055 -22.409  1.00  0.00     0.007 C 
HETATM   18  C25 UNL     1      -1.589  49.202 -20.905  1.00  0.00     0.013 C 
HETATM   19  C26 UNL     1      -1.527  50.657 -20.306  1.00  0.00    -0.006 C 
ENDROOT
BRANCH   1  20
HETATM   20  C7  UNL     1       0.302  52.325 -19.160  1.00  0.00     0.079 C 
HETATM   21  C8  UNL     1       1.502  53.230 -19.504  1.00  0.00     0.051 C 
BRANCH  20  22
HETATM   22  C6  UNL     1       0.562  51.741 -17.776  1.00  0.00     0.007 C 
HETATM   23  C5  UNL     1       1.402  52.254 -16.857  1.00  0.00    -0.024 C 
BRANCH  23  24
HETATM   24  C3  UNL     1       1.682  51.726 -15.462  1.00  0.00     0.003 C 
HETATM   25  C4  UNL     1       1.172  50.301 -15.210  1.00  0.00     0.014 C 
BRANCH  24  26
HETATM   26  C2  UNL     1       3.182  51.798 -15.110  1.00  0.00     0.003 C 
HETATM   27  C1  UNL     1       4.030  52.524 -16.147  1.00  0.00     0.006 C 
ENDBRANCH  24  26
ENDBRANCH  23  24
ENDBRANCH  20  22
BRANCH  20  28
HETATM   28  O1  UNL     1      -0.829  53.190 -19.019  1.00  0.00    -0.386 OA
HETATM   29  H15 UNL     1      -0.550  53.947 -18.474  1.00  0.00     0.211 HD
ENDBRANCH  20  28
ENDBRANCH   1  20
BRANCH   2  30
HETATM   30  O2  UNL     1       1.329  52.386 -21.987  1.00  0.00    -0.395 OA
HETATM   31  H18 UNL     1       1.276  52.651 -22.922  1.00  0.00     0.210 HD
ENDBRANCH   2  30
BRANCH  19  32
HETATM   32  C27 UNL     1      -2.293  50.596 -18.958  1.00  0.00     0.174 C 
BRANCH  32  33
HETATM   33  O4  UNL     1      -3.099  51.748 -18.744  1.00  0.00    -0.400 OA
HETATM   34  H42 UNL     1      -3.697  51.840 -19.503  1.00  0.00     0.209 HD
ENDBRANCH  32  33
ENDBRANCH  19  32
TORSDOF 8
ENDMDL
