MODEL 1
REMARK minimizedAffinity -8.51161194
REMARK CNNscore 0.726705611
REMARK CNNaffinity 7.34148836
REMARK  10 active torsions:
REMARK  status: ('A' for Active; 'I' for Inactive)
REMARK    1  A    between atoms: C2_2  and  C3_3 
REMARK    2  A    between atoms: C3_3  and  C4_4 
REMARK    3  A    between atoms: C4_4  and  O1_5 
REMARK    4  A    between atoms: O1_5  and  C5_6 
REMARK    5  A    between atoms: C5_6  and  C6_7 
REMARK    6  A    between atoms: C10_11  and  C12_13 
REMARK    7  A    between atoms: C12_13  and  C13_15 
REMARK    8  A    between atoms: C13_15  and  S1_16 
REMARK    9  A    between atoms: S1_16  and  C14_17 
REMARK   10  A    between atoms: C15_20  and  C16_21 
ROOT
HETATM    1  C12 UNL     1       0.432  52.693 -22.719  1.00  0.00     0.171 C 
HETATM    2  O2  UNL     1       1.046  53.656 -22.248  1.00  0.00    -0.294 OA
ENDROOT
BRANCH   1   3
HETATM    3  C10 UNL     1      -0.035  52.728 -24.190  1.00  0.00     0.129 C 
HETATM    4  C9  UNL     1      -1.431  52.108 -24.290  1.00  0.00     0.076 C 
HETATM    5  C8  UNL     1      -1.431  51.360 -25.609  1.00  0.00     0.141 C 
HETATM    6  C7  UNL     1      -2.171  50.035 -25.535  1.00  0.00     0.065 C 
HETATM    7  C22 UNL     1       0.024  51.201 -25.908  1.00  0.00     0.279 C 
HETATM    8  C23 UNL     1      -2.156  52.055 -26.722  1.00  0.00     0.278 C 
HETATM    9  C6  UNL     1      -2.642  49.841 -26.965  1.00  0.00     0.157 C 
HETATM   10  O6  UNL     1      -2.892  51.164 -27.449  1.00  0.00    -0.313 OA
HETATM   11  O3  UNL     1       0.782  51.910 -25.027  1.00  0.00    -0.301 OA
HETATM   12  O4  UNL     1       0.497  50.508 -26.794  1.00  0.00    -0.264 OA
HETATM   13  O5  UNL     1      -2.126  53.252 -26.954  1.00  0.00    -0.264 OA
HETATM   14  C11 UNL     1       0.018  54.171 -24.691  1.00  0.00     0.055 C 
BRANCH   9  15
HETATM   15  C5  UNL     1      -3.910  48.994 -27.073  1.00  0.00     0.200 C 
BRANCH  15  16
HETATM   16  O1  UNL     1      -3.839  48.178 -28.240  1.00  0.00    -0.389 OA
BRANCH  16  17
HETATM   17  C4  UNL     1      -5.060  48.148 -28.983  1.00  0.00     0.167 C 
BRANCH  17  18
HETATM   18  C3  UNL     1      -6.230  47.710 -28.104  1.00  0.00     0.026 C 
BRANCH  18  19
HETATM   19  C2  UNL     1      -7.590  47.866 -28.786  1.00  0.00    -0.002 C 
HETATM   20  C1  UNL     1      -7.614  47.328 -30.208  1.00  0.00     0.005 C 
ENDBRANCH  18  19
ENDBRANCH  17  18
ENDBRANCH  16  17
ENDBRANCH  15  16
ENDBRANCH   9  15
ENDBRANCH   1   3
BRANCH   1  21
HETATM   21  C13 UNL     1       0.065  51.498 -21.858  1.00  0.00     0.164 C 
BRANCH  21  22
HETATM   22  S1  UNL     1      -1.090  51.916 -20.526  1.00  0.00    -0.085 SA
BRANCH  22  23
HETATM   23  C14 UNL     1      -0.015  52.127 -19.206  1.00  0.00     0.161 A 
HETATM   24  N1  UNL     1       0.144  51.357 -18.163  1.00  0.00    -0.320 N 
HETATM   25  C15 UNL     1       1.130  51.999 -17.439  1.00  0.00     0.134 A 
ATOM     26  H1  UNL     1      -0.343  50.490 -17.937  1.00  0.00     0.169 HD
HETATM   27  N2  UNL     1       1.541  53.154 -17.993  1.00  0.00    -0.283 N 
HETATM   28  N3  UNL     1       0.820  53.193 -19.126  1.00  0.00    -0.278 N 
ATOM     29  H2  UNL     1       2.224  53.826 -17.643  1.00  0.00     0.188 HD
HETATM   30  H26 UNL     1       0.938  53.962 -19.775  1.00  0.00     0.189 HD
BRANCH  25  31
HETATM   31  C16 UNL     1       1.590  51.474 -16.159  1.00  0.00     0.031 A 
HETATM   32  C17 UNL     1       0.808  50.478 -15.541  1.00  0.00     0.017 A 
HETATM   33  C18 UNL     1       1.177  49.930 -14.309  1.00  0.00     0.001 A 
HETATM   34  C19 UNL     1       2.336  50.363 -13.677  1.00  0.00     0.002 A 
HETATM   35  C20 UNL     1       3.131  51.338 -14.281  1.00  0.00     0.025 A 
HETATM   36  C21 UNL     1       2.766  51.892 -15.518  1.00  0.00     0.048 A 
HETATM   37 CL1  UNL     1       3.869  53.040 -16.198  1.00  0.00    -0.083 Cl
ENDBRANCH  25  31
ENDBRANCH  22  23
ENDBRANCH  21  22
ENDBRANCH   1  21
TORSDOF 10
ENDMDL
