MODEL 1
REMARK minimizedAffinity -7.64833021
REMARK CNNscore 0.856328785
REMARK CNNaffinity 7.38818502
REMARK  10 active torsions:
REMARK  status: ('A' for Active; 'I' for Inactive)
REMARK    1  A    between atoms: C2_2  and  C3_3 
REMARK    2  A    between atoms: C3_3  and  C4_4 
REMARK    3  A    between atoms: C4_4  and  O1_5 
REMARK    4  A    between atoms: C4_4  and  C5_6 
REMARK    5  A    between atoms: C4_4  and  C26_30 
REMARK    6  A    between atoms: C17_18  and  O2_19 
REMARK    7  A    between atoms: C22_24  and  O3_25 
REMARK    8  A    between atoms: C27_32  and  C28_33 
REMARK    9  A    between atoms: C28_33  and  O6_35 
REMARK   10  A    between atoms: C28_33  and  C30_36 
ROOT
HETATM    1  C5  UNL     1      -0.312  53.169  -8.969  1.00  0.00     0.034 C 
HETATM    2  C6  UNL     1      -1.796  53.713  -9.161  1.00  0.00     0.016 C 
HETATM    3  C7  UNL     1      -2.162  53.430 -10.624  1.00  0.00     0.026 C 
HETATM    4  C8  UNL     1      -3.599  53.143 -11.017  1.00  0.00     0.013 C 
HETATM    5  C9  UNL     1      -3.639  52.820 -12.533  1.00  0.00     0.043 C 
HETATM    6  C10 UNL     1      -2.462  52.008 -13.062  1.00  0.00    -0.006 C 
HETATM    7  C11 UNL     1      -1.353  51.741 -12.344  1.00  0.00    -0.030 C 
HETATM    8  C12 UNL     1      -0.239  50.800 -12.763  1.00  0.00     0.027 C 
HETATM    9  C13 UNL     1       1.131  51.051 -12.052  1.00  0.00     0.011 C 
HETATM   10  C14 UNL     1       1.053  51.521 -10.579  1.00  0.00     0.014 C 
HETATM   11  C15 UNL     1       0.102  52.730 -10.439  1.00  0.00    -0.002 C 
HETATM   12  C16 UNL     1       0.665  53.917 -11.270  1.00  0.00     0.019 C 
HETATM   13  C17 UNL     1      -1.274  52.237 -10.943  1.00  0.00     0.094 C 
HETATM   14  C18 UNL     1      -0.122  50.680 -14.325  1.00  0.00    -0.026 C 
HETATM   15  C19 UNL     1       0.503  51.954 -14.955  1.00  0.00     0.016 C 
HETATM   16  C20 UNL     1       0.789  49.457 -14.666  1.00  0.00     0.013 C 
HETATM   17  C21 UNL     1       0.352  48.731 -15.933  1.00  0.00     0.032 C 
HETATM   18  C22 UNL     1      -1.059  48.152 -15.777  1.00  0.00     0.119 C 
HETATM   19  C23 UNL     1      -1.992  49.036 -14.941  1.00  0.00     0.045 C 
HETATM   20  C24 UNL     1      -1.532  50.498 -14.973  1.00  0.00     0.071 C 
HETATM   21  C25 UNL     1      -2.619  51.404 -14.413  1.00  0.00     0.161 C 
HETATM   22  O4  UNL     1      -3.646  51.617 -15.058  1.00  0.00    -0.292 OA
ENDROOT
BRANCH   1  23
HETATM   23  C4  UNL     1       0.624  54.110  -8.125  1.00  0.00     0.091 C 
BRANCH  23  24
HETATM   24  C3  UNL     1      -0.218  55.065  -7.233  1.00  0.00     0.040 C 
BRANCH  24  25
HETATM   25  C2  UNL     1      -0.354  54.723  -5.739  1.00  0.00    -0.002 C 
HETATM   26  C1  UNL     1      -1.466  53.740  -5.409  1.00  0.00     0.005 C 
ENDBRANCH  24  25
ENDBRANCH  23  24
BRANCH  23  27
HETATM   27  O1  UNL     1       1.430  53.304  -7.263  1.00  0.00    -0.387 OA
HETATM   28  H8  UNL     1       2.109  52.875  -7.811  1.00  0.00     0.210 HD
ENDBRANCH  23  27
BRANCH  23  29
HETATM   29  C26 UNL     1       1.577  54.953  -8.966  1.00  0.00     0.188 A 
HETATM   30  O5  UNL     1       2.261  56.030  -8.319  1.00  0.00    -0.369 OA
HETATM   31  C27 UNL     1       3.083  54.936  -8.754  1.00  0.00     0.188 A 
BRANCH  31  32
HETATM   32  C28 UNL     1       4.072  55.241  -9.872  1.00  0.00     0.086 C 
HETATM   33  C29 UNL     1       3.632  56.451 -10.721  1.00  0.00     0.049 C 
BRANCH  32  34
HETATM   34  O6  UNL     1       4.111  54.102 -10.741  1.00  0.00    -0.387 OA
HETATM   35  H43 UNL     1       3.292  54.096 -11.263  1.00  0.00     0.210 HD
ENDBRANCH  32  34
BRANCH  32  36
HETATM   36  C30 UNL     1       5.510  55.451  -9.283  1.00  0.00     0.014 C 
HETATM   37  C31 UNL     1       6.399  54.202  -9.395  1.00  0.00     0.012 C 
HETATM   38  C32 UNL     1       5.500  55.873  -7.800  1.00  0.00     0.012 C 
ENDBRANCH  32  36
ENDBRANCH  31  32
ENDBRANCH  23  29
ENDBRANCH   1  23
BRANCH  13  39
HETATM   39  O2  UNL     1      -1.685  51.108 -10.140  1.00  0.00    -0.384 OA
HETATM   40  H25 UNL     1      -2.491  50.731 -10.531  1.00  0.00     0.211 HD
ENDBRANCH  13  39
BRANCH  18  41
HETATM   41  O3  UNL     1      -1.613  47.947 -17.075  1.00  0.00    -0.396 OA
HETATM   42  H34 UNL     1      -1.815  48.815 -17.465  1.00  0.00     0.210 HD
ENDBRANCH  18  41
TORSDOF 10
ENDMDL
