MODEL 1
REMARK minimizedAffinity -9.04357815
REMARK CNNscore 0.463179827
REMARK CNNaffinity 7.17456293
REMARK  8 active torsions:
REMARK  status: ('A' for Active; 'I' for Inactive)
REMARK    1  A    between atoms: C2_2  and  C3_3 
REMARK    2  A    between atoms: C2_2  and  C9_11 
REMARK    3  A    between atoms: C3_3  and  C4_4 
REMARK    4  A    between atoms: C4_4  and  C5_5 
REMARK    5  A    between atoms: C6_6  and  C7_7 
REMARK    6  A    between atoms: C6_6  and  C8_9 
REMARK    7  A    between atoms: C7_7  and  O1_8 
REMARK    8  A    between atoms: C8_9  and  O2_10 
ROOT
HETATM    1  C9  UNL     1      -6.419   6.673  15.339  1.00  0.00     0.018 C 
HETATM    2  C10 UNL     1      -6.479   8.208  15.535  1.00  0.00     0.010 C 
HETATM    3  C11 UNL     1      -5.017   8.692  15.441  1.00  0.00     0.011 C 
HETATM    4  C12 UNL     1      -4.371   7.757  14.391  1.00  0.00    -0.032 C 
HETATM    5  C13 UNL     1      -4.913   8.214  13.000  1.00  0.00     0.016 C 
HETATM    6  C14 UNL     1      -4.973   6.401  14.852  1.00  0.00     0.002 C 
HETATM    7  C15 UNL     1      -4.649   5.260  13.904  1.00  0.00     0.006 C 
HETATM    8  C16 UNL     1      -3.120   5.107  13.779  1.00  0.00     0.006 C 
HETATM    9  C17 UNL     1      -2.394   6.430  13.401  1.00  0.00     0.003 C 
HETATM   10  C18 UNL     1      -0.856   6.258  13.035  1.00  0.00    -0.035 C 
HETATM   11  C19 UNL     1      -0.042   5.624  14.185  1.00  0.00     0.016 C 
HETATM   12  C20 UNL     1      -0.752   5.272  11.818  1.00  0.00     0.017 C 
HETATM   13  C21 UNL     1       0.384   5.542  10.838  1.00  0.00     0.080 C 
HETATM   14  C22 UNL     1       1.536   6.272  11.478  1.00  0.00     0.135 C 
HETATM   15  O3  UNL     1       2.680   5.824  11.406  1.00  0.00    -0.297 OA
HETATM   16  C23 UNL     1       1.220   7.627  12.124  1.00  0.00     0.017 C 
HETATM   17  C24 UNL     1       2.232   7.896  13.253  1.00  0.00     0.023 C 
HETATM   18  C25 UNL     1       1.448   8.695  11.033  1.00  0.00     0.023 C 
HETATM   19  C26 UNL     1      -0.284   7.651  12.582  1.00  0.00     0.009 C 
HETATM   20  C27 UNL     1      -0.593   8.779  13.586  1.00  0.00     0.007 C 
HETATM   21  C28 UNL     1      -2.096   8.920  13.847  1.00  0.00     0.011 C 
HETATM   22  C29 UNL     1      -2.768   7.626  14.376  1.00  0.00    -0.032 C 
HETATM   23  C30 UNL     1      -2.229   7.392  15.817  1.00  0.00     0.016 C 
ENDROOT
BRANCH   1  24
HETATM   24  C2  UNL     1      -7.584   5.991  14.624  1.00  0.00    -0.084 C 
HETATM   25  C1  UNL     1      -8.608   6.757  14.199  1.00  0.00     0.014 C 
BRANCH  24  26
HETATM   26  C3  UNL     1      -7.546   4.480  14.441  1.00  0.00     0.037 C 
BRANCH  26  27
HETATM   27  C4  UNL     1      -7.926   3.868  13.077  1.00  0.00     0.032 C 
BRANCH  27  28
HETATM   28  C5  UNL     1      -6.813   3.970  12.063  1.00  0.00    -0.019 C 
HETATM   29  C6  UNL     1      -6.074   2.969  11.540  1.00  0.00    -0.037 C 
BRANCH  29  30
HETATM   30  C7  UNL     1      -4.965   3.268  10.565  1.00  0.00     0.200 C 
BRANCH  30  31
HETATM   31  O1  UNL     1      -5.473   3.105   9.245  1.00  0.00    -0.397 OA
HETATM   32  H10 UNL     1      -4.707   3.160   8.647  1.00  0.00     0.209 HD
ENDBRANCH  30  31
ENDBRANCH  29  30
BRANCH  29  33
HETATM   33  C8  UNL     1      -6.260   1.504  11.840  1.00  0.00     0.200 C 
BRANCH  33  34
HETATM   34  O2  UNL     1      -7.512   1.302  12.477  1.00  0.00    -0.397 OA
HETATM   35  H13 UNL     1      -7.623   2.061  13.087  1.00  0.00     0.209 HD
ENDBRANCH  33  34
ENDBRANCH  29  33
ENDBRANCH  27  28
ENDBRANCH  26  27
ENDBRANCH  24  26
ENDBRANCH   1  24
TORSDOF 8
ENDMDL
