MODEL 1
REMARK minimizedAffinity -9.04762554
REMARK CNNscore 0.548964858
REMARK CNNaffinity 6.59768486
REMARK  4 active torsions:
REMARK  status: ('A' for Active; 'I' for Inactive)
REMARK    1  A    between atoms: C2_2  and  C3_3 
REMARK    2  A    between atoms: C2_2  and  C9_9 
REMARK    3  A    between atoms: C4_4  and  C5_5 
REMARK    4  A    between atoms: C23_23  and  O1_24 
ROOT
HETATM    1  C9  UNL     1      -4.127   6.517  13.187  1.00  0.00     0.001 C 
HETATM    2  C10 UNL     1      -4.033   7.902  13.899  1.00  0.00     0.006 C 
HETATM    3  C11 UNL     1      -2.644   8.479  13.592  1.00  0.00     0.009 C 
HETATM    4  C12 UNL     1      -2.062   7.502  12.579  1.00  0.00     0.036 C 
HETATM    5  C13 UNL     1      -2.626   6.119  12.997  1.00  0.00    -0.033 C 
HETATM    6  C14 UNL     1      -2.043   5.557  14.312  1.00  0.00     0.016 C 
HETATM    7  C15 UNL     1      -2.334   5.152  11.831  1.00  0.00     0.010 C 
HETATM    8  C16 UNL     1      -0.835   5.097  11.481  1.00  0.00     0.010 C 
HETATM    9  C17 UNL     1      -0.228   6.482  11.178  1.00  0.00     0.039 C 
HETATM   10  C18 UNL     1      -0.563   7.560  12.263  1.00  0.00     0.123 C 
HETATM   11  C19 UNL     1       0.390   7.530  13.430  1.00  0.00     0.014 C 
HETATM   12  C20 UNL     1       1.672   7.696  13.076  1.00  0.00     0.014 C 
HETATM   13  C21 UNL     1       1.887   7.791  11.578  1.00  0.00     0.124 C 
HETATM   14  C22 UNL     1       3.348   8.099  11.230  1.00  0.00     0.078 C 
HETATM   15  C23 UNL     1       3.673   7.936   9.741  1.00  0.00     0.121 C 
HETATM   16  C24 UNL     1       2.457   7.714   8.849  1.00  0.00     0.033 C 
HETATM   17  C25 UNL     1       1.573   6.556   9.325  1.00  0.00     0.015 C 
HETATM   18  C26 UNL     1       1.331   6.506  10.871  1.00  0.00     0.001 C 
HETATM   19  C27 UNL     1       2.058   5.240  11.404  1.00  0.00     0.019 C 
HETATM   20  O2  UNL     1       1.086   8.915  11.111  1.00  0.00    -0.223 OA
HETATM   21  O3  UNL     1      -0.310   8.848  11.637  1.00  0.00    -0.224 OA
ENDROOT
BRANCH   1  22
HETATM   22  C2  UNL     1      -5.096   5.544  13.916  1.00  0.00     0.008 C 
HETATM   23  C1  UNL     1      -5.771   4.546  12.969  1.00  0.00     0.014 C 
BRANCH  22  24
HETATM   24  C3  UNL     1      -6.104   6.330  14.740  1.00  0.00    -0.026 C 
HETATM   25  C4  UNL     1      -7.180   7.002  14.294  1.00  0.00    -0.025 C 
BRANCH  25  26
HETATM   26  C5  UNL     1      -8.122   7.749  15.133  1.00  0.00     0.012 A 
HETATM   27  C6  UNL     1      -9.003   6.997  16.103  1.00  0.00     0.013 A 
HETATM   28  C7  UNL     1      -9.612   7.649  14.892  1.00  0.00    -0.010 A 
HETATM   29  C8  UNL     1     -10.209   6.805  13.816  1.00  0.00     0.010 C 
ENDBRANCH  25  26
ENDBRANCH  22  24
ENDBRANCH   1  22
BRANCH  15  30
HETATM   30  O1  UNL     1       4.563   6.824   9.597  1.00  0.00    -0.395 OA
HETATM   31  H33 UNL     1       4.838   6.789   8.664  1.00  0.00     0.210 HD
ENDBRANCH  15  30
TORSDOF 4
ENDMDL
