MODEL 1
REMARK minimizedAffinity -8.42934132
REMARK  8 active torsions:
REMARK  status: ('A' for Active; 'I' for Inactive)
REMARK    1  A    between atoms: C2_2  and  O2_4 
REMARK    2  A    between atoms: O2_4  and  C3_5 
REMARK    3  A    between atoms: C12_15  and  C13_16 
REMARK    4  A    between atoms: C13_16  and  O5_18 
REMARK    5  A    between atoms: O5_18  and  C14_19 
REMARK    6  A    between atoms: C14_19  and  C15_20 
REMARK    7  A    between atoms: C15_20  and  N1_21 
REMARK    8  A    between atoms: C25_31  and  O6_32 
ROOT
HETATM    1  C3  UNL     1      -0.815  52.602 -25.235  1.00  0.00     0.097 C 
HETATM    2  C4  UNL     1       0.143  53.695 -25.757  1.00  0.00     0.050 C 
HETATM    3  C5  UNL     1      -0.712  52.510 -23.665  1.00  0.00     0.038 C 
HETATM    4  C6  UNL     1       0.709  52.177 -23.184  1.00  0.00     0.087 C 
HETATM    5  C7  UNL     1       0.820  52.281 -21.681  1.00  0.00     0.132 C 
HETATM    6  O3  UNL     1       1.818  52.799 -21.177  1.00  0.00    -0.298 OA
HETATM    7  C8  UNL     1      -0.256  51.597 -20.846  1.00  0.00     0.068 C 
HETATM    8  C9  UNL     1      -0.158  51.967 -19.340  1.00  0.00     0.022 C 
HETATM    9  C10 UNL     1      -0.317  53.467 -19.035  1.00  0.00     0.015 C 
HETATM   10  C11 UNL     1      -1.201  51.169 -18.564  1.00  0.00    -0.070 C 
HETATM   11  C12 UNL     1      -0.995  50.344 -17.515  1.00  0.00     0.085 C 
HETATM   12  C18 UNL     1      -2.614  51.358 -19.083  1.00  0.00     0.035 C 
HETATM   13  C19 UNL     1      -2.705  51.038 -20.577  1.00  0.00     0.010 C 
HETATM   14  C20 UNL     1      -1.678  51.831 -21.421  1.00  0.00     0.006 C 
HETATM   15  C21 UNL     1      -1.763  51.555 -22.976  1.00  0.00    -0.033 C 
HETATM   16  C22 UNL     1      -1.522  50.053 -23.270  1.00  0.00     0.016 C 
HETATM   17  C23 UNL     1      -3.182  51.921 -23.489  1.00  0.00     0.012 C 
HETATM   18  C24 UNL     1      -3.292  51.976 -25.008  1.00  0.00     0.035 C 
HETATM   19  C25 UNL     1      -2.290  52.957 -25.605  1.00  0.00     0.153 C 
ENDROOT
BRANCH  11  20
HETATM   20  C13 UNL     1       0.227  49.928 -16.788  1.00  0.00     0.283 C 
HETATM   21  O4  UNL     1       0.373  48.776 -16.400  1.00  0.00    -0.260 OA
BRANCH  20  22
HETATM   22  O5  UNL     1       1.130  50.921 -16.666  1.00  0.00    -0.316 OA
BRANCH  22  23
HETATM   23  C14 UNL     1       1.049  51.703 -15.460  1.00  0.00     0.209 C 
BRANCH  23  24
HETATM   24  C15 UNL     1       1.830  51.005 -14.334  1.00  0.00     0.298 C 
BRANCH  24  25
HETATM   25  N1  UNL     1       3.251  51.351 -14.169  1.00  0.00     0.082 N 
HETATM   26  C16 UNL     1       3.783  52.073 -15.322  1.00  0.00     0.309 C 
HETATM   27  C17 UNL     1       4.081  50.194 -13.845  1.00  0.00     0.309 C 
ENDBRANCH  24  25
ENDBRANCH  23  24
ENDBRANCH  22  23
ENDBRANCH  20  22
ENDBRANCH  11  20
BRANCH   1  28
HETATM   28  O2  UNL     1      -0.406  51.295 -25.730  1.00  0.00    -0.308 OA
BRANCH  28  29
HETATM   29  C2  UNL     1       0.635  51.139 -26.584  1.00  0.00     0.255 C 
HETATM   30  C1  UNL     1       0.193  51.402 -27.991  1.00  0.00     0.126 C 
HETATM   31  O1  UNL     1       1.778  50.851 -26.260  1.00  0.00    -0.266 OA
ENDBRANCH  28  29
ENDBRANCH   1  28
BRANCH  19  32
HETATM   32  O6  UNL     1      -2.572  53.050 -26.999  1.00  0.00    -0.393 OA
HETATM   33  H39 UNL     1      -1.774  52.830 -27.523  1.00  0.00     0.210 HD
ENDBRANCH  19  32
TORSDOF 8
ENDMDL
