MODEL 1
REMARK minimizedAffinity -10.1970835
REMARK  7 active torsions:
REMARK  status: ('A' for Active; 'I' for Inactive)
REMARK    1  A    between atoms: C2_2  and  C4_4 
REMARK    2  A    between atoms: C7_7  and  O1_9 
REMARK    3  A    between atoms: C9_10  and  C10_11 
REMARK    4  A    between atoms: C11_12  and  C12_13 
REMARK    5  A    between atoms: C14_15  and  C15_16 
REMARK    6  A    between atoms: C24_26  and  C26_28 
REMARK    7  A    between atoms: C29_32  and  O4_34 
ROOT
HETATM    1  C15 UNL     1       0.340   5.662  12.131  1.00  0.00     0.149 C 
HETATM    2  C16 UNL     1       0.896   5.575  10.707  1.00  0.00     0.054 C 
HETATM    3  C17 UNL     1       1.722   6.874  10.481  1.00  0.00     0.050 C 
HETATM    4  C18 UNL     1       1.787   7.434  11.915  1.00  0.00     0.272 C 
HETATM    5  O2  UNL     1       2.900   6.879  12.611  1.00  0.00    -0.360 OA
HETATM    6  C19 UNL     1       4.070   7.693  12.577  1.00  0.00     0.171 C 
HETATM    7  C20 UNL     1       4.354   8.393  11.252  1.00  0.00     0.027 C 
HETATM    8  C21 UNL     1       4.276   7.517  10.003  1.00  0.00     0.012 C 
HETATM    9  C22 UNL     1       3.133   6.473   9.922  1.00  0.00     0.032 C 
HETATM   10  C23 UNL     1       3.029   5.931   8.482  1.00  0.00    -0.066 C 
HETATM   11  C24 UNL     1       3.497   4.707   8.121  1.00  0.00    -0.021 C 
HETATM   12  C25 UNL     1       4.187   3.720   9.032  1.00  0.00     0.052 C 
HETATM   13  C27 UNL     1       2.314   6.897   7.552  1.00  0.00     0.038 C 
HETATM   14  C28 UNL     1       0.938   7.303   8.081  1.00  0.00     0.042 C 
HETATM   15  C29 UNL     1       0.984   7.864   9.515  1.00  0.00     0.067 C 
HETATM   16  C30 UNL     1      -0.439   8.252   9.951  1.00  0.00     0.047 C 
HETATM   17  O5  UNL     1       0.581   6.999  12.558  1.00  0.00    -0.351 OA
ENDROOT
BRANCH   1  18
HETATM   18  C14 UNL     1      -1.120   5.292  12.208  1.00  0.00     0.011 C 
HETATM   19  C12 UNL     1      -2.163   6.009  12.685  1.00  0.00    -0.064 C 
HETATM   20  C13 UNL     1      -2.017   7.367  13.326  1.00  0.00     0.048 C 
BRANCH  19  21
HETATM   21  C11 UNL     1      -3.497   5.417  12.607  1.00  0.00     0.003 C 
HETATM   22  C10 UNL     1      -4.202   4.885  13.622  1.00  0.00    -0.018 C 
BRANCH  22  23
HETATM   23  C9  UNL     1      -5.585   4.274  13.506  1.00  0.00     0.050 C 
HETATM   24  C4  UNL     1      -5.944   3.807  12.058  1.00  0.00     0.024 C 
HETATM   25  C5  UNL     1      -7.460   4.019  11.953  1.00  0.00     0.013 C 
HETATM   26  C6  UNL     1      -7.672   5.317  12.722  1.00  0.00     0.039 C 
HETATM   27  C7  UNL     1      -6.800   5.142  13.972  1.00  0.00     0.062 C 
HETATM   28  C8  UNL     1      -6.501   6.482  14.643  1.00  0.00     0.046 C 
BRANCH  24  29
HETATM   29  C2  UNL     1      -5.465   2.405  11.712  1.00  0.00    -0.088 C 
HETATM   30  C1  UNL     1      -6.341   1.416  11.452  1.00  0.00     0.014 C 
HETATM   31  C3  UNL     1      -3.984   2.143  11.651  1.00  0.00     0.043 C 
ENDBRANCH  24  29
BRANCH  27  32
HETATM   32  O1  UNL     1      -7.565   4.370  14.914  1.00  0.00    -0.390 OA
HETATM   33  H14 UNL     1      -7.027   4.271  15.719  1.00  0.00     0.210 HD
ENDBRANCH  27  32
ENDBRANCH  22  23
ENDBRANCH  19  21
ENDBRANCH   1  18
BRANCH  15  34
HETATM   34  O4  UNL     1       1.731   9.089   9.462  1.00  0.00    -0.389 OA
HETATM   35  H44 UNL     1       1.257   9.718   8.888  1.00  0.00     0.210 HD
ENDBRANCH  15  34
BRANCH  11  36
HETATM   36  C26 UNL     1       3.378   4.186   6.719  1.00  0.00     0.265 C 
HETATM   37  O3  UNL     1       4.188   3.403   6.235  1.00  0.00    -0.302 OA
ENDBRANCH  11  36
TORSDOF 7
ENDMDL
