MODEL 1
REMARK minimizedAffinity -8.95045567
REMARK CNNscore 0.51785934
REMARK CNNaffinity 6.88714743
REMARK  8 active torsions:
REMARK  status: ('A' for Active; 'I' for Inactive)
REMARK    1  A    between atoms: C4_4  and  C5_5 
REMARK    2  A    between atoms: C5_5  and  C6_6 
REMARK    3  A    between atoms: C6_6  and  C7_7 
REMARK    4  A    between atoms: C7_7  and  C9_9 
REMARK    5  A    between atoms: C25_26  and  C27_28 
REMARK    6  A    between atoms: C27_28  and  O3_30 
REMARK    7  A    between atoms: C28_31  and  O4_32 
REMARK    8  A    between atoms: C30_34  and  O5_35 
ROOT
HETATM    1  C9  UNL     1      -1.151  50.511 -22.228  1.00  0.00    -0.002 C 
HETATM    2  C10 UNL     1      -1.366  50.491 -20.686  1.00  0.00     0.007 C 
HETATM    3  C11 UNL     1      -2.678  49.733 -20.410  1.00  0.00     0.015 C 
HETATM    4  C12 UNL     1      -3.035  49.043 -21.739  1.00  0.00    -0.005 C 
HETATM    5  C13 UNL     1      -2.219  47.713 -21.796  1.00  0.00     0.021 C 
HETATM    6  C14 UNL     1      -4.472  48.618 -22.032  1.00  0.00    -0.000 C 
HETATM    7  C15 UNL     1      -4.961  48.602 -23.304  1.00  0.00    -0.058 C 
HETATM    8  C16 UNL     1      -4.088  49.056 -24.475  1.00  0.00     0.036 C 
HETATM    9  C17 UNL     1      -2.661  49.546 -24.162  1.00  0.00     0.015 C 
HETATM   10  C18 UNL     1      -2.574  50.158 -22.761  1.00  0.00    -0.028 C 
HETATM   11  C19 UNL     1      -3.468  51.440 -22.721  1.00  0.00     0.016 C 
HETATM   12  C20 UNL     1      -6.438  48.185 -23.638  1.00  0.00     0.011 C 
HETATM   13  C21 UNL     1      -7.240  49.500 -23.514  1.00  0.00     0.023 C 
HETATM   14  C22 UNL     1      -6.820  47.081 -22.591  1.00  0.00     0.029 C 
HETATM   15  C23 UNL     1      -6.709  47.618 -21.163  1.00  0.00     0.090 C 
HETATM   16  C24 UNL     1      -5.323  48.154 -20.885  1.00  0.00     0.157 C 
HETATM   17  O1  UNL     1      -4.915  48.205 -19.726  1.00  0.00    -0.293 OA
HETATM   18  C25 UNL     1      -8.071  46.172 -22.908  1.00  0.00     0.072 C 
HETATM   19  C26 UNL     1      -7.516  44.733 -23.165  1.00  0.00     0.030 C 
HETATM   20  C28 UNL     1      -8.856  46.570 -24.175  1.00  0.00     0.139 C 
HETATM   21  C29 UNL     1      -7.983  46.924 -25.373  1.00  0.00     0.065 C 
HETATM   22  C30 UNL     1      -6.610  47.540 -25.057  1.00  0.00     0.133 C 
ENDROOT
BRANCH   1  23
HETATM   23  C7  UNL     1      -0.448  51.819 -22.693  1.00  0.00    -0.014 C 
HETATM   24  C8  UNL     1       0.635  52.248 -21.685  1.00  0.00     0.010 C 
BRANCH  23  25
HETATM   25  C6  UNL     1       0.160  51.772 -24.114  1.00  0.00     0.008 C 
BRANCH  25  26
HETATM   26  C5  UNL     1      -0.096  53.013 -24.975  1.00  0.00     0.028 C 
BRANCH  26  27
HETATM   27  C4  UNL     1       0.083  52.708 -26.438  1.00  0.00    -0.025 C 
HETATM   28  C2  UNL     1       1.106  52.055 -27.025  1.00  0.00    -0.091 C 
HETATM   29  C1  UNL     1       2.330  51.549 -26.313  1.00  0.00     0.042 C 
HETATM   30  C3  UNL     1       1.090  51.777 -28.506  1.00  0.00     0.042 C 
ENDBRANCH  26  27
ENDBRANCH  25  26
ENDBRANCH  23  25
ENDBRANCH   1  23
BRANCH  22  31
HETATM   31  O5  UNL     1      -6.315  48.441 -26.128  1.00  0.00    -0.394 OA
HETATM   32  H46 UNL     1      -6.969  49.161 -26.112  1.00  0.00     0.210 HD
ENDBRANCH  22  31
BRANCH  18  33
HETATM   33  C27 UNL     1      -9.088  46.007 -21.769  1.00  0.00     0.151 C 
HETATM   34  O2  UNL     1      -9.461  44.942 -21.292  1.00  0.00    -0.649 OA
BRANCH  33  35
HETATM   35  O3  UNL     1      -9.617  47.150 -21.298  1.00  0.00    -0.776 OA
HETATM   36  H40 UNL     1     -10.259  46.851 -20.619  1.00  0.00     0.167 HD
ENDBRANCH  33  35
ENDBRANCH  18  33
BRANCH  20  37
HETATM   37  O4  UNL     1      -9.724  47.676 -23.931  1.00  0.00    -0.394 OA
HETATM   38  H42 UNL     1     -10.393  47.694 -24.638  1.00  0.00     0.210 HD
ENDBRANCH  20  37
TORSDOF 8
ENDMDL
