MODEL 1
REMARK minimizedAffinity -8.8647871
REMARK CNNscore 0.79520756
REMARK CNNaffinity 7.14424515
REMARK  9 active torsions:
REMARK  status: ('A' for Active; 'I' for Inactive)
REMARK    1  A    between atoms: C2_2  and  C17_19 
REMARK    2  A    between atoms: C3_3  and  C4_4 
REMARK    3  A    between atoms: C4_4  and  C5_5 
REMARK    4  A    between atoms: C5_5  and  C6_6 
REMARK    5  A    between atoms: C12_12  and  O1_13 
REMARK    6  A    between atoms: C17_19  and  C18_20 
REMARK    7  A    between atoms: C18_20  and  C19_21 
REMARK    8  A    between atoms: C23_25  and  C24_26 
REMARK    9  A    between atoms: C24_26  and  O3_29 
ROOT
HETATM    1  C1  UNL     1      -2.604   7.516  15.538  1.00  0.00     0.043 C 
HETATM    2  C2  UNL     1      -2.804   7.852  14.084  1.00  0.00    -0.087 C 
HETATM    3  C3  UNL     1      -3.986   8.208  13.540  1.00  0.00    -0.024 C 
ENDROOT
BRANCH   2   4
HETATM    4  C17 UNL     1      -1.573   7.709  13.200  1.00  0.00     0.037 C 
BRANCH   4   5
HETATM    5  C18 UNL     1      -0.434   6.887  13.821  1.00  0.00     0.032 C 
BRANCH   5   6
HETATM    6  C19 UNL     1       0.931   7.183  13.252  1.00  0.00    -0.013 C 
HETATM    7  C20 UNL     1       1.401   6.935  12.011  1.00  0.00     0.013 C 
HETATM    8  C21 UNL     1       2.782   7.366  11.625  1.00  0.00     0.047 C 
HETATM    9  C27 UNL     1       0.587   6.243  10.977  1.00  0.00     0.289 C 
HETATM   10  C22 UNL     1       2.764   7.986  10.242  1.00  0.00     0.040 C 
HETATM   11  C23 UNL     1       2.239   6.946   9.260  1.00  0.00     0.166 C 
HETATM   12  O4  UNL     1       0.942   6.453   9.686  1.00  0.00    -0.309 OA
HETATM   13  O5  UNL     1      -0.379   5.541  11.245  1.00  0.00    -0.260 OA
BRANCH  11  14
HETATM   14  C24 UNL     1       2.077   7.481   7.809  1.00  0.00     0.077 C 
HETATM   15  C25 UNL     1       0.658   8.018   7.572  1.00  0.00     0.048 C 
HETATM   16  C26 UNL     1       2.397   6.414   6.758  1.00  0.00     0.048 C 
BRANCH  14  17
HETATM   17  O3  UNL     1       2.988   8.569   7.603  1.00  0.00    -0.388 OA
HETATM   18  H36 UNL     1       2.774   9.241   8.277  1.00  0.00     0.210 HD
ENDBRANCH  14  17
ENDBRANCH  11  14
ENDBRANCH   5   6
ENDBRANCH   4   5
ENDBRANCH   2   4
BRANCH   3  19
HETATM   19  C4  UNL     1      -5.308   8.398  14.237  1.00  0.00     0.030 C 
BRANCH  19  20
HETATM   20  C5  UNL     1      -6.344   7.387  13.725  1.00  0.00     0.046 C 
BRANCH  20  21
HETATM   21  C6  UNL     1      -6.370   6.049  14.502  1.00  0.00     0.082 C 
HETATM   22  C7  UNL     1      -6.096   6.261  15.998  1.00  0.00     0.051 C 
HETATM   23  C8  UNL     1      -7.748   5.434  14.363  1.00  0.00     0.012 C 
HETATM   24  C9  UNL     1      -7.988   4.332  13.647  1.00  0.00     0.013 C 
HETATM   25  C10 UNL     1      -6.865   3.704  12.966  1.00  0.00     0.000 A 
HETATM   26  C11 UNL     1      -7.076   2.616  12.112  1.00  0.00     0.050 A 
HETATM   27  C16 UNL     1      -5.566   4.181  13.181  1.00  0.00     0.086 A 
HETATM   28  C12 UNL     1      -5.987   2.019  11.482  1.00  0.00     0.067 A 
HETATM   29  C13 UNL     1      -4.694   2.485  11.694  1.00  0.00     0.046 A 
HETATM   30  C14 UNL     1      -4.468   3.569  12.552  1.00  0.00    -0.025 A 
HETATM   31  C15 UNL     1      -3.071   4.070  12.781  1.00  0.00     0.051 C 
HETATM   32  O2  UNL     1      -5.288   5.225  14.021  1.00  0.00    -0.335 OA
BRANCH  28  33
HETATM   33  O1  UNL     1      -6.148   0.957  10.641  1.00  0.00    -0.361 OA
HETATM   34  H15 UNL     1      -7.094   0.742  10.584  1.00  0.00     0.217 HD
ENDBRANCH  28  33
ENDBRANCH  20  21
ENDBRANCH  19  20
ENDBRANCH   3  19
TORSDOF 9
ENDMDL
