MODEL 1
REMARK minimizedAffinity -7.44069958
REMARK CNNscore 0.366655052
REMARK CNNaffinity 6.67507505
REMARK  12 active torsions:
REMARK  status: ('A' for Active; 'I' for Inactive)
REMARK    1  A    between atoms: C2_2  and  C3_3 
REMARK    2  A    between atoms: C3_3  and  O2_5 
REMARK    3  A    between atoms: C14_16  and  C15_17 
REMARK    4  A    between atoms: C15_17  and  C17_19 
REMARK    5  A    between atoms: C17_19  and  C18_20 
REMARK    6  A    between atoms: C18_20  and  C19_21 
REMARK    7  A    between atoms: C20_22  and  C22_24 
REMARK    8  A    between atoms: C22_24  and  O4_26 
REMARK    9  A    between atoms: C27_31  and  C28_32 
REMARK   10  A    between atoms: C28_32  and  C29_33 
REMARK   11  A    between atoms: C29_33  and  C30_34 
REMARK   12  A    between atoms: C30_34  and  O5_35 
ROOT
HETATM    1  C1  UNL     1      -3.217   7.638  15.575  1.00  0.00     0.056 C 
HETATM    2  C2  UNL     1      -4.135   7.162  14.488  1.00  0.00     0.014 C 
HETATM    3  C4  UNL     1      -5.141   6.265  14.650  1.00  0.00    -0.062 C 
HETATM    4  C5  UNL     1      -5.422   5.614  15.978  1.00  0.00     0.036 C 
HETATM    5  C6  UNL     1      -6.824   5.936  16.486  1.00  0.00     0.010 C 
HETATM    6  C7  UNL     1      -7.938   5.991  15.409  1.00  0.00     0.003 C 
HETATM    7  C8  UNL     1      -7.521   5.324  14.031  1.00  0.00    -0.032 C 
HETATM    8  C9  UNL     1      -7.549   3.782  14.245  1.00  0.00     0.016 C 
HETATM    9  C10 UNL     1      -8.576   5.598  12.892  1.00  0.00     0.011 C 
HETATM   10  C11 UNL     1      -9.281   6.967  12.890  1.00  0.00     0.011 C 
HETATM   11  C12 UNL     1      -9.839   7.316  14.278  1.00  0.00    -0.032 C 
HETATM   12  C13 UNL     1     -10.906   6.243  14.669  1.00  0.00     0.016 C 
HETATM   13  C14 UNL     1     -10.478   8.728  14.470  1.00  0.00    -0.002 C 
HETATM   14  C23 UNL     1     -10.340   8.941  16.013  1.00  0.00     0.006 C 
HETATM   15  C24 UNL     1      -9.302   7.928  16.535  1.00  0.00     0.011 C 
HETATM   16  C25 UNL     1      -8.608   7.399  15.266  1.00  0.00    -0.032 C 
HETATM   17  C26 UNL     1      -7.555   8.490  14.889  1.00  0.00     0.016 C 
HETATM   18  C27 UNL     1      -6.092   5.823  13.530  1.00  0.00     0.024 C 
ENDROOT
BRANCH  13  19
HETATM   19  C15 UNL     1     -11.933   9.016  13.978  1.00  0.00    -0.014 C 
HETATM   20  C16 UNL     1     -12.926   9.125  15.139  1.00  0.00     0.010 C 
BRANCH  19  21
HETATM   21  C17 UNL     1     -12.386   7.899  12.994  1.00  0.00     0.008 C 
BRANCH  21  22
HETATM   22  C18 UNL     1     -13.796   7.330  13.216  1.00  0.00     0.028 C 
BRANCH  22  23
HETATM   23  C19 UNL     1     -14.847   8.037  12.405  1.00  0.00    -0.013 C 
HETATM   24  C20 UNL     1     -16.088   7.607  12.098  1.00  0.00     0.008 C 
HETATM   25  C21 UNL     1     -16.705   6.304  12.507  1.00  0.00     0.055 C 
BRANCH  24  26
HETATM   26  C22 UNL     1     -16.918   8.529  11.277  1.00  0.00     0.171 C 
HETATM   27  O3  UNL     1     -16.539   9.524  10.686  1.00  0.00    -0.646 OA
BRANCH  26  28
HETATM   28  O4  UNL     1     -18.209   8.156  11.236  1.00  0.00    -0.773 OA
HETATM   29  H33 UNL     1     -18.624   8.841  10.672  1.00  0.00     0.167 HD
ENDBRANCH  26  28
ENDBRANCH  24  26
ENDBRANCH  22  23
ENDBRANCH  21  22
ENDBRANCH  19  21
ENDBRANCH  13  19
BRANCH  18  30
HETATM   30  C28 UNL     1      -5.395   4.905  12.478  1.00  0.00     0.012 C 
BRANCH  30  31
HETATM   31  C29 UNL     1      -4.247   4.018  12.985  1.00  0.00     0.027 C 
BRANCH  31  32
HETATM   32  C30 UNL     1      -3.621   3.202  11.858  1.00  0.00     0.164 C 
BRANCH  32  33
HETATM   33  O5  UNL     1      -4.594   2.911  10.865  1.00  0.00    -0.401 OA
HETATM   34  H48 UNL     1      -4.149   2.391  10.175  1.00  0.00     0.209 HD
ENDBRANCH  32  33
ENDBRANCH  31  32
ENDBRANCH  30  31
ENDBRANCH  18  30
BRANCH   2  35
HETATM   35  C3  UNL     1      -3.863   7.776  13.167  1.00  0.00     0.171 C 
HETATM   36  O1  UNL     1      -4.508   8.643  12.608  1.00  0.00    -0.646 OA
BRANCH  35  37
HETATM   37  O2  UNL     1      -2.756   7.245  12.621  1.00  0.00    -0.773 OA
HETATM   38  H4  UNL     1      -2.703   7.675  11.741  1.00  0.00     0.167 HD
ENDBRANCH  35  37
ENDBRANCH   2  35
TORSDOF 12
ENDMDL
