MODEL 1
REMARK minimizedAffinity -8.87634659
REMARK  8 active torsions:
REMARK  status: ('A' for Active; 'I' for Inactive)
REMARK    1  A    between atoms: C4_4  and  C5_5 
REMARK    2  A    between atoms: C5_5  and  C6_6 
REMARK    3  A    between atoms: C6_6  and  C7_7 
REMARK    4  A    between atoms: C9_9  and  C10_10 
REMARK    5  A    between atoms: C11_11  and  C12_12 
REMARK    6  A    between atoms: C14_14  and  C15_15 
REMARK    7  A    between atoms: C24_25  and  C26_27 
REMARK    8  A    between atoms: C29_31  and  O3_33 
ROOT
HETATM    1  C15 UNL     1      -6.249  47.534 -28.455  1.00  0.00     0.149 C 
HETATM    2  C16 UNL     1      -6.629  46.056 -28.610  1.00  0.00     0.054 C 
HETATM    3  C17 UNL     1      -7.878  46.094 -29.522  1.00  0.00     0.050 C 
HETATM    4  C18 UNL     1      -8.510  47.374 -28.944  1.00  0.00     0.272 C 
HETATM    5  O1  UNL     1      -9.620  47.885 -29.650  1.00  0.00    -0.360 OA
HETATM    6  C19 UNL     1      -9.363  48.874 -30.623  1.00  0.00     0.171 C 
HETATM    7  C20 UNL     1      -8.510  48.429 -31.802  1.00  0.00     0.027 C 
HETATM    8  C21 UNL     1      -8.387  46.919 -32.000  1.00  0.00     0.012 C 
HETATM    9  C22 UNL     1      -7.384  46.289 -31.012  1.00  0.00     0.032 C 
HETATM   10  C23 UNL     1      -6.793  44.987 -31.595  1.00  0.00    -0.066 C 
HETATM   11  C24 UNL     1      -5.563  44.872 -32.158  1.00  0.00    -0.021 C 
HETATM   12  C25 UNL     1      -4.910  43.592 -32.617  1.00  0.00     0.052 C 
HETATM   13  C27 UNL     1      -7.746  43.819 -31.457  1.00  0.00     0.038 C 
HETATM   14  C28 UNL     1      -8.116  43.589 -29.996  1.00  0.00     0.042 C 
HETATM   15  C29 UNL     1      -8.796  44.826 -29.380  1.00  0.00     0.067 C 
HETATM   16  C30 UNL     1      -9.223  44.478 -27.942  1.00  0.00     0.047 C 
HETATM   17  O4  UNL     1      -7.438  48.302 -28.726  1.00  0.00    -0.351 OA
ENDROOT
BRANCH   1  18
HETATM   18  C14 UNL     1      -5.768  47.872 -27.074  1.00  0.00     0.011 C 
HETATM   19  C12 UNL     1      -4.534  48.281 -26.711  1.00  0.00    -0.063 C 
HETATM   20  C13 UNL     1      -3.388  48.421 -27.682  1.00  0.00     0.048 C 
BRANCH  19  21
HETATM   21  C11 UNL     1      -4.282  48.583 -25.302  1.00  0.00     0.006 C 
HETATM   22  C10 UNL     1      -3.079  48.729 -24.719  1.00  0.00     0.001 C 
BRANCH  22  23
HETATM   23  C9  UNL     1      -2.929  49.007 -23.303  1.00  0.00     0.002 C 
HETATM   24  C7  UNL     1      -2.099  49.905 -22.732  1.00  0.00    -0.084 C 
HETATM   25  C8  UNL     1      -1.193  50.843 -23.496  1.00  0.00     0.043 C 
BRANCH  24  26
HETATM   26  C6  UNL     1      -1.974  50.092 -21.222  1.00  0.00     0.037 C 
BRANCH  26  27
HETATM   27  C5  UNL     1      -0.570  50.304 -20.635  1.00  0.00     0.031 C 
BRANCH  27  28
HETATM   28  C4  UNL     1      -0.126  51.736 -20.773  1.00  0.00    -0.024 C 
HETATM   29  C2  UNL     1       0.313  52.563 -19.802  1.00  0.00    -0.091 C 
HETATM   30  C1  UNL     1       0.764  53.962 -20.132  1.00  0.00     0.042 C 
HETATM   31  C3  UNL     1       0.395  52.215 -18.342  1.00  0.00     0.042 C 
ENDBRANCH  27  28
ENDBRANCH  26  27
ENDBRANCH  24  26
ENDBRANCH  22  23
ENDBRANCH  19  21
ENDBRANCH   1  18
BRANCH  15  32
HETATM   32  O3  UNL     1     -10.012  45.040 -30.107  1.00  0.00    -0.389 OA
HETATM   33  H44 UNL     1     -10.603  44.281 -29.973  1.00  0.00     0.210 HD
ENDBRANCH  15  32
BRANCH  11  34
HETATM   34  C26 UNL     1      -4.689  46.066 -32.416  1.00  0.00     0.265 C 
HETATM   35  O2  UNL     1      -4.065  46.636 -31.528  1.00  0.00    -0.302 OA
ENDBRANCH  11  34
TORSDOF 8
ENDMDL
