MODEL 1
REMARK minimizedAffinity -6.61724949
REMARK CNNscore 0.457438439
REMARK CNNaffinity 6.4243145
REMARK  8 active torsions:
REMARK  status: ('A' for Active; 'I' for Inactive)
REMARK    1  A    between atoms: C4_4  and  C5_5 
REMARK    2  A    between atoms: C5_5  and  C6_6 
REMARK    3  A    between atoms: C6_6  and  C7_7 
REMARK    4  A    between atoms: C9_9  and  C10_10 
REMARK    5  A    between atoms: C11_11  and  C12_12 
REMARK    6  A    between atoms: C14_14  and  C15_15 
REMARK    7  A    between atoms: C24_25  and  C26_27 
REMARK    8  A    between atoms: C29_31  and  O3_33 
ROOT
HETATM    1  C15 UNL     1     -14.018   8.932  13.158  1.00  0.00     0.149 C 
HETATM    2  C16 UNL     1     -15.010   7.804  13.467  1.00  0.00     0.054 C 
HETATM    3  C17 UNL     1     -15.908   8.401  14.576  1.00  0.00     0.050 C 
HETATM    4  C18 UNL     1     -14.812   9.186  15.321  1.00  0.00     0.272 C 
HETATM    5  O1  UNL     1     -15.262  10.058  16.335  1.00  0.00    -0.360 OA
HETATM    6  C19 UNL     1     -15.486  11.404  15.974  1.00  0.00     0.171 C 
HETATM    7  C20 UNL     1     -16.588  11.633  14.950  1.00  0.00     0.027 C 
HETATM    8  C21 UNL     1     -17.566  10.475  14.756  1.00  0.00     0.012 C 
HETATM    9  C22 UNL     1     -16.964   9.355  13.883  1.00  0.00     0.032 C 
HETATM   10  C23 UNL     1     -18.080   8.557  13.178  1.00  0.00    -0.066 C 
HETATM   11  C24 UNL     1     -18.444   8.704  11.877  1.00  0.00    -0.021 C 
HETATM   12  C25 UNL     1     -19.438   7.853  11.129  1.00  0.00     0.052 C 
HETATM   13  C27 UNL     1     -18.737   7.557  14.105  1.00  0.00     0.038 C 
HETATM   14  C28 UNL     1     -17.708   6.583  14.670  1.00  0.00     0.042 C 
HETATM   15  C29 UNL     1     -16.611   7.313  15.467  1.00  0.00     0.067 C 
HETATM   16  C30 UNL     1     -15.675   6.257  16.081  1.00  0.00     0.047 C 
HETATM   17  O4  UNL     1     -13.979   9.785  14.319  1.00  0.00    -0.351 OA
ENDROOT
BRANCH   1  18
HETATM   18  C14 UNL     1     -12.629   8.432  12.886  1.00  0.00     0.011 C 
HETATM   19  C12 UNL     1     -11.990   7.411  13.495  1.00  0.00    -0.063 C 
HETATM   20  C13 UNL     1     -12.590   6.613  14.627  1.00  0.00     0.048 C 
BRANCH  19  21
HETATM   21  C11 UNL     1     -10.636   7.071  13.057  1.00  0.00     0.006 C 
HETATM   22  C10 UNL     1      -9.729   6.357  13.746  1.00  0.00     0.001 C 
BRANCH  22  23
HETATM   23  C9  UNL     1      -8.398   6.090  13.236  1.00  0.00     0.002 C 
HETATM   24  C7  UNL     1      -7.320   5.684  13.941  1.00  0.00    -0.084 C 
HETATM   25  C8  UNL     1      -7.329   5.377  15.421  1.00  0.00     0.043 C 
BRANCH  24  26
HETATM   26  C6  UNL     1      -5.940   5.477  13.321  1.00  0.00     0.037 C 
BRANCH  26  27
HETATM   27  C5  UNL     1      -5.622   4.101  12.715  1.00  0.00     0.031 C 
BRANCH  27  28
HETATM   28  C4  UNL     1      -4.392   4.153  11.848  1.00  0.00    -0.024 C 
HETATM   29  C2  UNL     1      -3.661   3.117  11.388  1.00  0.00    -0.091 C 
HETATM   30  C1  UNL     1      -2.477   3.354  10.488  1.00  0.00     0.042 C 
HETATM   31  C3  UNL     1      -3.916   1.670  11.707  1.00  0.00     0.042 C 
ENDBRANCH  27  28
ENDBRANCH  26  27
ENDBRANCH  24  26
ENDBRANCH  22  23
ENDBRANCH  19  21
ENDBRANCH   1  18
BRANCH  15  32
HETATM   32  O3  UNL     1     -17.255   7.955  16.574  1.00  0.00    -0.389 OA
HETATM   33  H44 UNL     1     -17.641   7.279  17.155  1.00  0.00     0.210 HD
ENDBRANCH  15  32
BRANCH  11  34
HETATM   34  C26 UNL     1     -17.883   9.797  11.012  1.00  0.00     0.265 C 
HETATM   35  O2  UNL     1     -16.927   9.626  10.264  1.00  0.00    -0.302 OA
ENDBRANCH  11  34
TORSDOF 8
ENDMDL
