MODEL 1
REMARK minimizedAffinity -8.49497604
REMARK CNNscore 0.463240355
REMARK CNNaffinity 6.93203592
REMARK  19 active torsions:
REMARK  status: ('A' for Active; 'I' for Inactive)
REMARK    1  A    between atoms: C2_2  and  C3_3 
REMARK    2  A    between atoms: C3_3  and  C5_5 
REMARK    3  A    between atoms: C5_5  and  N1_6 
REMARK    4  A    between atoms: C5_5  and  C37_46 
REMARK       I    between atoms: N1_6  and  C6_7 
REMARK    5  A    between atoms: C6_7  and  C7_9 
REMARK    6  A    between atoms: C7_9  and  C8_10 
REMARK    7  A    between atoms: C8_10  and  C9_11 
REMARK    8  A    between atoms: C9_11  and  C10_12 
REMARK    9  A    between atoms: C10_12  and  C11_13 
REMARK   10  A    between atoms: C11_13  and  N2_14 
REMARK       I    between atoms: N2_14  and  C12_15 
REMARK   11  A    between atoms: C12_15  and  C13_17 
REMARK   12  A    between atoms: C13_17  and  C14_18 
REMARK   13  A    between atoms: C14_18  and  C15_19 
REMARK   14  A    between atoms: C15_19  and  O4_21 
REMARK   15  A    between atoms: O4_21  and  C16_22 
REMARK   16  A    between atoms: C16_22  and  C17_23 
REMARK   17  A    between atoms: C17_23  and  C18_25 
REMARK   18  A    between atoms: C18_25  and  O6_26 
REMARK   19  A    between atoms: C37_46  and  O9_48 
ROOT
HETATM    1  C15 UNL     1       6.599   7.523  11.231  1.00  0.00     0.259 C 
HETATM    2  O3  UNL     1       7.199   6.834  10.415  1.00  0.00    -0.265 OA
ENDROOT
BRANCH   1   3
HETATM    3  C14 UNL     1       7.173   7.869  12.585  1.00  0.00     0.120 C 
BRANCH   3   4
HETATM    4  C13 UNL     1       6.372   7.372  13.781  1.00  0.00     0.112 C 
BRANCH   4   5
HETATM    5  C12 UNL     1       6.891   7.939  15.088  1.00  0.00     0.217 C 
HETATM    6  N2  UNL     1       8.227   7.677  15.290  1.00  0.00    -0.361 N 
HETATM    7  H22 UNL     1       8.772   7.253  14.546  1.00  0.00     0.162 HD
HETATM    8  O2  UNL     1       6.185   8.541  15.889  1.00  0.00    -0.274 OA
BRANCH   6   9
HETATM    9  C11 UNL     1       8.914   8.167  16.466  1.00  0.00     0.122 C 
BRANCH   9  10
HETATM   10  C10 UNL     1       9.566   9.532  16.261  1.00  0.00     0.020 C 
BRANCH  10  11
HETATM   11  C9  UNL     1       8.862  10.699  16.968  1.00  0.00     0.002 C 
BRANCH  11  12
HETATM   12  C8  UNL     1       8.885  10.619  18.498  1.00  0.00     0.009 C 
BRANCH  12  13
HETATM   13  C7  UNL     1      10.168  11.209  19.090  1.00  0.00     0.103 C 
BRANCH  13  14
HETATM   14  C6  UNL     1       9.897  12.294  20.119  1.00  0.00     0.218 C 
HETATM   15  N1  UNL     1       8.630  12.223  20.659  1.00  0.00    -0.346 N 
HETATM   16  H11 UNL     1       8.172  11.318  20.630  1.00  0.00     0.163 HD
HETATM   17  O1  UNL     1      10.725  13.135  20.451  1.00  0.00    -0.274 OA
BRANCH  15  18
HETATM   18  C5  UNL     1       8.243  13.115  21.757  1.00  0.00     0.186 C 
BRANCH  18  19
HETATM   19  C3  UNL     1       6.702  13.241  21.861  1.00  0.00     0.014 C 
HETATM   20  C4  UNL     1       6.022  12.680  20.603  1.00  0.00     0.012 C 
BRANCH  19  21
HETATM   21  C2  UNL     1       6.176  12.527  23.129  1.00  0.00     0.002 C 
HETATM   22  C1  UNL     1       5.260  11.345  22.840  1.00  0.00     0.005 C 
ENDBRANCH  19  21
ENDBRANCH  18  19
BRANCH  18  23
HETATM   23  C37 UNL     1       8.837  12.501  23.028  1.00  0.00     0.163 C 
HETATM   24  O8  UNL     1       8.937  11.305  23.265  1.00  0.00    -0.648 OA
BRANCH  23  25
HETATM   25  O9  UNL     1       9.242  13.421  23.928  1.00  0.00    -0.775 OA
HETATM   26  H56 UNL     1       9.631  12.893  24.654  1.00  0.00     0.167 HD
ENDBRANCH  23  25
ENDBRANCH  18  23
ENDBRANCH  15  18
ENDBRANCH  13  14
ENDBRANCH  12  13
ENDBRANCH  11  12
ENDBRANCH  10  11
ENDBRANCH   9  10
ENDBRANCH   6   9
ENDBRANCH   4   5
ENDBRANCH   3   4
ENDBRANCH   1   3
BRANCH   1  27
HETATM   27  O4  UNL     1       5.312   7.926  11.088  1.00  0.00    -0.314 OA
BRANCH  27  28
HETATM   28  C16 UNL     1       4.442   7.028  10.405  1.00  0.00     0.260 C 
BRANCH  28  29
HETATM   29  C17 UNL     1       3.141   7.469   9.705  1.00  0.00     0.185 C 
HETATM   30  O5  UNL     1       3.173   8.426   8.922  1.00  0.00    -0.292 OA
BRANCH  29  31
HETATM   31  C18 UNL     1       1.814   6.812  10.166  1.00  0.00     0.128 C 
HETATM   32  C19 UNL     1       2.102   5.333  10.538  1.00  0.00     0.047 C 
HETATM   33  C20 UNL     1       1.109   4.955  11.654  1.00  0.00     0.009 C 
HETATM   34  C21 UNL     1       0.193   6.175  11.794  1.00  0.00     0.002 C 
HETATM   35  C22 UNL     1      -0.579   6.318  13.122  1.00  0.00    -0.004 C 
HETATM   36  C35 UNL     1       1.122   7.372  11.463  1.00  0.00    -0.002 C 
HETATM   37  C23 UNL     1      -1.649   5.209  13.241  1.00  0.00     0.010 C 
HETATM   38  C32 UNL     1      -1.148   7.781  13.293  1.00  0.00     0.002 C 
HETATM   39  C24 UNL     1      -3.011   5.655  12.728  1.00  0.00     0.035 C 
HETATM   40  C25 UNL     1      -3.534   6.862  13.463  1.00  0.00    -0.068 C 
HETATM   41  C26 UNL     1      -4.862   7.064  13.547  1.00  0.00     0.053 C 
HETATM   42  C30 UNL     1      -2.514   7.822  14.074  1.00  0.00    -0.016 C 
HETATM   43  C27 UNL     1      -5.436   8.248  14.237  1.00  0.00     0.149 C 
HETATM   44  O7  UNL     1      -6.655   8.328  14.377  1.00  0.00    -0.293 OA
HETATM   45  C28 UNL     1      -4.496   9.301  14.777  1.00  0.00     0.084 C 
HETATM   46  C29 UNL     1      -3.142   9.246  14.069  1.00  0.00     0.022 C 
HETATM   47  C31 UNL     1      -2.243   7.431  15.555  1.00  0.00     0.020 C 
HETATM   48  C33 UNL     1      -1.142   8.538  11.938  1.00  0.00     0.007 C 
HETATM   49  C34 UNL     1       0.251   8.636  11.286  1.00  0.00     0.013 C 
HETATM   50  C36 UNL     1       2.139   7.633  12.611  1.00  0.00     0.019 C 
BRANCH  31  51
HETATM   51  O6  UNL     1       0.861   6.760   9.094  1.00  0.00    -0.381 OA
HETATM   52  H29 UNL     1       0.663   7.678   8.844  1.00  0.00     0.211 HD
ENDBRANCH  31  51
ENDBRANCH  29  31
ENDBRANCH  28  29
ENDBRANCH  27  28
ENDBRANCH   1  27
TORSDOF 19
ENDMDL
