MODEL 1
REMARK minimizedAffinity -7.71145201
REMARK  12 active torsions:
REMARK  status: ('A' for Active; 'I' for Inactive)
REMARK    1  A    between atoms: C2_2  and  O1_3 
REMARK    2  A    between atoms: O1_3  and  C3_4 
REMARK    3  A    between atoms: C3_4  and  C4_6 
REMARK    4  A    between atoms: C6_8  and  N1_9 
REMARK       I    between atoms: N1_9  and  C7_10 
REMARK    5  A    between atoms: C7_10  and  C8_12 
REMARK    6  A    between atoms: C14_19  and  O4_20 
REMARK    7  A    between atoms: O4_20  and  C15_21 
REMARK    8  A    between atoms: C15_21  and  C16_22 
REMARK    9  A    between atoms: C16_22  and  O5_23 
REMARK   10  A    between atoms: C16_22  and  C17_24 
REMARK   11  A    between atoms: C17_24  and  N2_25 
REMARK   12  A    between atoms: N2_25  and  C18_26 
ROOT
HETATM    1  C4  UNL     1      -0.447  52.918 -23.966  1.00  0.00     0.074 A 
HETATM    2  C5  UNL     1       0.071  52.628 -22.694  1.00  0.00     0.050 A 
HETATM    3  C6  UNL     1      -0.715  51.966 -21.756  1.00  0.00     0.036 A 
HETATM    4  C12 UNL     1      -2.021  51.609 -22.114  1.00  0.00     0.032 A 
HETATM    5  C13 UNL     1      -2.534  51.902 -23.387  1.00  0.00     0.040 A 
HETATM    6  C14 UNL     1      -1.753  52.563 -24.331  1.00  0.00     0.085 A 
ENDROOT
BRANCH   6   7
HETATM    7  O4  UNL     1      -2.145  52.894 -25.595  1.00  0.00    -0.348 OA
BRANCH   7   8
HETATM    8  C15 UNL     1      -3.117  52.105 -26.298  1.00  0.00     0.209 C 
BRANCH   8   9
HETATM    9  C16 UNL     1      -2.455  50.869 -26.928  1.00  0.00     0.170 C 
BRANCH   9  10
HETATM   10  O5  UNL     1      -2.768  50.809 -28.333  1.00  0.00    -0.392 OA
HETATM   11  H16 UNL     1      -1.934  51.034 -28.802  1.00  0.00     0.210 HD
ENDBRANCH   9  10
BRANCH   9  12
HETATM   12  C17 UNL     1      -2.946  49.546 -26.297  1.00  0.00     0.304 C 
BRANCH  12  13
HETATM   13  N2  UNL     1      -4.397  49.456 -26.099  1.00  0.00     0.094 N 
HETATM   14  H19 UNL     1      -4.769  48.778 -26.768  1.00  0.00     0.317 HD
BRANCH  13  15
HETATM   15  C18 UNL     1      -4.864  49.067 -24.749  1.00  0.00     0.147 C 
HETATM   16  C19 UNL     1      -3.718  48.442 -23.930  1.00  0.00     0.048 C 
HETATM   17  C20 UNL     1      -5.946  47.990 -24.976  1.00  0.00     0.048 C 
HETATM   18  C21 UNL     1      -5.496  50.228 -23.961  1.00  0.00     0.048 C 
ENDBRANCH  13  15
ENDBRANCH  12  13
ENDBRANCH   9  12
ENDBRANCH   8   9
ENDBRANCH   7   8
ENDBRANCH   6   7
BRANCH   1  19
HETATM   19  C3  UNL     1       0.423  53.635 -24.914  1.00  0.00     0.296 C 
HETATM   20  O2  UNL     1       0.269  54.794 -25.262  1.00  0.00    -0.259 OA
BRANCH  19  21
HETATM   21  O1  UNL     1       1.405  52.778 -25.288  1.00  0.00    -0.318 OA
BRANCH  21  22
HETATM   22  C2  UNL     1       1.253  52.183 -26.582  1.00  0.00     0.174 C 
HETATM   23  C1  UNL     1       2.556  51.540 -27.024  1.00  0.00     0.034 C 
ENDBRANCH  21  22
ENDBRANCH  19  21
ENDBRANCH   1  19
BRANCH   3  24
HETATM   24  N1  UNL     1      -0.294  51.638 -20.451  1.00  0.00    -0.322 N 
HETATM   25  C7  UNL     1      -0.026  52.509 -19.399  1.00  0.00     0.263 C 
HETATM   26  O3  UNL     1      -0.074  53.733 -19.496  1.00  0.00    -0.267 OA
HETATM   27  H7  UNL     1      -0.108  50.659 -20.282  1.00  0.00     0.169 HD
BRANCH  25  28
HETATM   28  C8  UNL     1       0.345  51.832 -18.154  1.00  0.00     0.072 A 
HETATM   29  C9  UNL     1      -0.110  50.640 -17.608  1.00  0.00     0.025 A 
HETATM   30  C10 UNL     1       0.524  50.328 -16.366  1.00  0.00     0.009 A 
HETATM   31  C11 UNL     1       1.432  51.292 -15.993  1.00  0.00     0.050 A 
HETATM   32  S1  UNL     1       1.512  52.568 -17.127  1.00  0.00    -0.097 SA
ENDBRANCH  25  28
ENDBRANCH   3  24
TORSDOF 12
ENDMDL
