MODEL 1
REMARK minimizedAffinity -7.47902203
REMARK CNNscore 0.62078923
REMARK CNNaffinity 7.23149347
REMARK  16 active torsions:
REMARK  status: ('A' for Active; 'I' for Inactive)
REMARK    1  A    between atoms: C2_2  and  C3_3 
REMARK    2  A    between atoms: C3_3  and  C4_4 
REMARK    3  A    between atoms: C4_4  and  C5_5 
REMARK    4  A    between atoms: C5_5  and  C6_6 
REMARK    5  A    between atoms: C6_6  and  C7_7 
REMARK    6  A    between atoms: C7_7  and  C8_8 
REMARK    7  A    between atoms: C7_7  and  C30_36 
REMARK    8  A    between atoms: C9_9  and  C11_11 
REMARK    9  A    between atoms: C11_11  and  O1_12 
REMARK   10  A    between atoms: C11_11  and  C12_13 
REMARK   11  A    between atoms: C12_13  and  C14_15 
REMARK   12  A    between atoms: C14_15  and  O3_17 
REMARK   13  A    between atoms: O3_17  and  C15_18 
REMARK   14  A    between atoms: C24_27  and  C26_29 
REMARK   15  A    between atoms: C26_29  and  O4_30 
REMARK   16  A    between atoms: C30_36  and  O7_37 
ROOT
HETATM    1  C14 UNL     1       0.376  52.022 -17.881  1.00  0.00     0.266 C 
HETATM    2  O2  UNL     1       0.622  53.078 -18.450  1.00  0.00    -0.265 OA
ENDROOT
BRANCH   1   3
HETATM    3  C12 UNL     1      -0.850  51.183 -18.187  1.00  0.00     0.114 C 
HETATM    4  C13 UNL     1      -0.513  49.722 -17.898  1.00  0.00     0.023 C 
BRANCH   3   5
HETATM    5  C11 UNL     1      -1.367  51.432 -19.619  1.00  0.00     0.159 C 
BRANCH   5   6
HETATM    6  C9  UNL     1      -0.486  50.885 -20.735  1.00  0.00    -0.058 C 
HETATM    7  C8  UNL     1       0.215  51.573 -21.666  1.00  0.00    -0.015 C 
HETATM    8  C10 UNL     1      -0.481  49.366 -20.831  1.00  0.00     0.046 C 
BRANCH   7   9
HETATM    9  C7  UNL     1       0.452  53.043 -21.997  1.00  0.00     0.032 C 
BRANCH   9  10
HETATM   10  C6  UNL     1       0.510  53.244 -23.540  1.00  0.00     0.010 C 
BRANCH  10  11
HETATM   11  C5  UNL     1       0.132  52.027 -24.394  1.00  0.00     0.001 C 
BRANCH  11  12
HETATM   12  C4  UNL     1       1.123  51.750 -25.532  1.00  0.00     0.000 C 
BRANCH  12  13
HETATM   13  C3  UNL     1       0.547  50.860 -26.638  1.00  0.00    -0.000 C 
BRANCH  13  14
HETATM   14  C2  UNL     1      -0.425  51.601 -27.561  1.00  0.00    -0.005 C 
HETATM   15  C1  UNL     1       0.186  52.822 -28.232  1.00  0.00     0.005 C 
ENDBRANCH  13  14
ENDBRANCH  12  13
ENDBRANCH  11  12
ENDBRANCH  10  11
ENDBRANCH   9  10
BRANCH   9  16
HETATM   16  C30 UNL     1       1.579  53.817 -21.291  1.00  0.00     0.172 C 
BRANCH  16  17
HETATM   17  O7  UNL     1       2.019  54.962 -22.006  1.00  0.00    -0.400 OA
HETATM   18  H48 UNL     1       1.803  54.832 -22.944  1.00  0.00     0.209 HD
ENDBRANCH  16  17
ENDBRANCH   9  16
ENDBRANCH   7   9
ENDBRANCH   5   6
BRANCH   5  19
HETATM   19  O1  UNL     1      -2.638  50.790 -19.760  1.00  0.00    -0.390 OA
HETATM   20  H20 UNL     1      -2.901  50.884 -20.693  1.00  0.00     0.210 HD
ENDBRANCH   5  19
ENDBRANCH   3   5
ENDBRANCH   1   3
BRANCH   1  21
HETATM   21  O3  UNL     1       1.103  51.511 -16.853  1.00  0.00    -0.312 OA
BRANCH  21  22
HETATM   22  C15 UNL     1       1.362  52.393 -15.744  1.00  0.00     0.170 C 
HETATM   23  C16 UNL     1       2.856  52.715 -15.731  1.00  0.00     0.036 C 
HETATM   24  C17 UNL     1       3.708  51.506 -15.350  1.00  0.00     0.007 C 
HETATM   25  C18 UNL     1       3.295  50.938 -13.979  1.00  0.00    -0.007 C 
HETATM   26  C19 UNL     1       4.255  49.806 -13.596  1.00  0.00     0.011 C 
HETATM   27  C20 UNL     1       1.773  50.546 -13.930  1.00  0.00     0.000 C 
HETATM   28  C21 UNL     1       1.485  49.282 -14.773  1.00  0.00     0.019 C 
HETATM   29  C22 UNL     1       1.367  50.245 -12.444  1.00  0.00     0.055 C 
HETATM   30  C29 UNL     1       0.948  51.725 -14.456  1.00  0.00     0.129 A 
HETATM   31  C23 UNL     1      -0.120  50.133 -12.143  1.00  0.00    -0.005 C 
HETATM   32  C24 UNL     1      -0.628  49.537 -11.034  1.00  0.00    -0.051 C 
HETATM   33  C27 UNL     1      -1.040  50.736 -13.172  1.00  0.00     0.187 C 
HETATM   34  C25 UNL     1      -2.106  49.490 -10.710  1.00  0.00     0.046 C 
HETATM   35  O5  UNL     1      -2.158  50.299 -13.412  1.00  0.00    -0.290 OA
HETATM   36  C28 UNL     1      -0.491  51.824 -14.011  1.00  0.00     0.235 A 
HETATM   37  O6  UNL     1       0.537  52.653 -13.435  1.00  0.00    -0.357 OA
BRANCH  32  38
HETATM   38  C26 UNL     1       0.219  48.875  -9.975  1.00  0.00     0.198 C 
BRANCH  38  39
HETATM   39  O4  UNL     1       0.667  47.625 -10.477  1.00  0.00    -0.397 OA
HETATM   40  H44 UNL     1       1.253  47.245  -9.802  1.00  0.00     0.209 HD
ENDBRANCH  38  39
ENDBRANCH  32  38
ENDBRANCH  21  22
ENDBRANCH   1  21
TORSDOF 16
ENDMDL
