MODEL 1
REMARK minimizedAffinity -7.67370224
REMARK CNNscore 0.695274174
REMARK CNNaffinity 7.19972038
REMARK  6 active torsions:
REMARK  status: ('A' for Active; 'I' for Inactive)
REMARK    1  A    between atoms: C2_2  and  C30_32 
REMARK    2  A    between atoms: C3_3  and  C4_4 
REMARK    3  A    between atoms: C4_4  and  C5_6 
REMARK    4  A    between atoms: C5_6  and  C6_7 
REMARK    5  A    between atoms: C6_7  and  C8_9 
REMARK    6  A    between atoms: C30_32  and  O4_34 
ROOT
HETATM    1  C8  UNL     1      -9.394   7.526  14.427  1.00  0.00    -0.001 C 
HETATM    2  C9  UNL     1      -9.524   7.991  15.875  1.00  0.00     0.007 C 
HETATM    3  C10 UNL     1     -10.794   8.844  15.926  1.00  0.00     0.015 C 
HETATM    4  C11 UNL     1     -11.523   8.716  14.550  1.00  0.00    -0.013 C 
HETATM    5  C12 UNL     1     -11.228   9.984  13.703  1.00  0.00     0.021 C 
HETATM    6  C13 UNL     1     -13.050   8.647  14.761  1.00  0.00    -0.070 C 
HETATM    7  C14 UNL     1     -13.685   9.583  15.491  1.00  0.00    -0.022 C 
HETATM    8  C15 UNL     1     -15.166   9.705  15.630  1.00  0.00     0.034 C 
HETATM    9  C16 UNL     1     -15.978   8.897  14.588  1.00  0.00     0.013 C 
HETATM   10  C17 UNL     1     -17.527   8.921  14.885  1.00  0.00     0.018 C 
HETATM   11  C18 UNL     1     -17.986  10.115  15.749  1.00  0.00     0.023 C 
HETATM   12  C19 UNL     1     -18.323   9.018  13.564  1.00  0.00     0.023 C 
HETATM   13  C20 UNL     1     -17.938   7.653  15.642  1.00  0.00     0.135 C 
HETATM   14  O2  UNL     1     -19.091   7.221  15.614  1.00  0.00    -0.297 OA
HETATM   15  C21 UNL     1     -16.896   7.000  16.520  1.00  0.00     0.080 C 
HETATM   16  C22 UNL     1     -15.588   6.693  15.791  1.00  0.00     0.017 C 
HETATM   17  C23 UNL     1     -15.372   7.453  14.449  1.00  0.00    -0.031 C 
HETATM   18  C24 UNL     1     -16.062   6.643  13.320  1.00  0.00     0.016 C 
HETATM   19  C25 UNL     1     -13.833   7.560  14.049  1.00  0.00     0.024 C 
HETATM   20  C26 UNL     1     -13.119   6.187  14.073  1.00  0.00     0.010 C 
HETATM   21  C27 UNL     1     -11.642   6.202  14.464  1.00  0.00     0.011 C 
HETATM   22  C28 UNL     1     -10.873   7.418  13.922  1.00  0.00    -0.029 C 
HETATM   23  C29 UNL     1     -10.878   7.375  12.379  1.00  0.00     0.016 C 
ENDROOT
BRANCH   1  24
HETATM   24  C6  UNL     1      -8.345   6.415  14.131  1.00  0.00    -0.007 C 
HETATM   25  C7  UNL     1      -7.978   5.686  15.438  1.00  0.00     0.011 C 
BRANCH  24  26
HETATM   26  C5  UNL     1      -8.566   5.394  13.003  1.00  0.00     0.087 C 
BRANCH  26  27
HETATM   27  C4  UNL     1      -7.719   4.135  13.002  1.00  0.00     0.150 C 
HETATM   28  O1  UNL     1      -8.206   3.037  13.259  1.00  0.00    -0.293 OA
BRANCH  27  29
HETATM   29  C3  UNL     1      -6.286   4.276  12.615  1.00  0.00     0.063 C 
HETATM   30  C2  UNL     1      -5.596   3.379  11.884  1.00  0.00     0.015 C 
HETATM   31  C1  UNL     1      -6.119   2.062  11.383  1.00  0.00     0.055 C 
BRANCH  30  32
HETATM   32  C30 UNL     1      -4.185   3.662  11.529  1.00  0.00     0.171 C 
HETATM   33  O3  UNL     1      -3.487   4.527  12.026  1.00  0.00    -0.646 OA
BRANCH  32  34
HETATM   34  O4  UNL     1      -3.693   2.864  10.565  1.00  0.00    -0.773 OA
HETATM   35  H44 UNL     1      -2.772   3.180  10.462  1.00  0.00     0.167 HD
ENDBRANCH  32  34
ENDBRANCH  30  32
ENDBRANCH  27  29
ENDBRANCH  26  27
ENDBRANCH  24  26
ENDBRANCH   1  24
TORSDOF 6
ENDMDL
