MODEL 1
REMARK minimizedAffinity -7.558465
REMARK CNNscore 0.583244383
REMARK CNNaffinity 6.64882517
REMARK  5 active torsions:
REMARK  status: ('A' for Active; 'I' for Inactive)
REMARK    1  A    between atoms: C3_3  and  C4_4 
REMARK    2  A    between atoms: C4_4  and  O2_6 
REMARK    3  A    between atoms: O2_6  and  C5_7 
REMARK    4  A    between atoms: C5_7  and  C6_8 
REMARK    5  A    between atoms: C12_14  and  C13_15 
ROOT
HETATM    1  C1  UNL     1       3.861  52.220  -8.406  1.00  0.00     0.069 C 
HETATM    2  C2  UNL     1       2.779  53.198  -8.027  1.00  0.00     0.018 C 
HETATM    3  C3  UNL     1       2.153  54.028  -8.890  1.00  0.00     0.052 C 
HETATM    4  C12 UNL     1       1.063  54.996  -8.447  1.00  0.00     0.104 C 
HETATM    5  C22 UNL     1       0.955  55.066  -6.923  1.00  0.00     0.024 C 
HETATM    6  C23 UNL     1       1.625  54.208  -6.123  1.00  0.00     0.020 C 
HETATM    7  C24 UNL     1       1.557  54.270  -4.617  1.00  0.00     0.058 C 
HETATM    8  C25 UNL     1       1.155  55.651  -4.115  1.00  0.00     0.014 C 
HETATM    9  C26 UNL     1      -0.091  56.148  -4.828  1.00  0.00     0.084 C 
HETATM   10  C27 UNL     1       0.086  56.121  -6.329  1.00  0.00     0.158 C 
HETATM   11  O5  UNL     1      -0.519  56.910  -7.051  1.00  0.00    -0.293 OA
HETATM   12  N1  UNL     1       2.450  53.245  -6.678  1.00  0.00    -0.362 N 
HETATM   13  H22 UNL     1       3.018  52.686  -6.045  1.00  0.00     0.165 HD
ENDROOT
BRANCH   4  14
HETATM   14  C13 UNL     1      -0.263  54.620  -9.095  1.00  0.00     0.029 A 
HETATM   15  C14 UNL     1      -0.978  55.393  -9.925  1.00  0.00     0.154 A 
HETATM   16  O3  UNL     1      -2.159  55.067 -10.546  1.00  0.00    -0.321 OA
HETATM   17  C15 UNL     1      -2.670  53.816 -10.321  1.00  0.00     0.089 A 
HETATM   18  C16 UNL     1      -3.855  53.483 -10.978  1.00  0.00     0.040 A 
HETATM   19  C20 UNL     1      -2.058  52.893  -9.476  1.00  0.00     0.050 A 
HETATM   20  C17 UNL     1      -4.424  52.222 -10.784  1.00  0.00     0.026 A 
HETATM   21  C18 UNL     1      -3.807  51.304  -9.931  1.00  0.00     0.035 A 
HETATM   22 CL1  UNL     1      -4.514  49.753  -9.698  1.00  0.00    -0.084 Cl
HETATM   23  C19 UNL     1      -2.624  51.631  -9.273  1.00  0.00     0.042 A 
HETATM   24  C21 UNL     1      -0.806  53.269  -8.800  1.00  0.00     0.194 A 
HETATM   25  O4  UNL     1      -0.257  52.499  -8.021  1.00  0.00    -0.287 OA
ENDBRANCH   4  14
BRANCH   3  26
HETATM   26  C4  UNL     1       2.511  54.057 -10.319  1.00  0.00     0.292 C 
HETATM   27  O1  UNL     1       2.471  53.085 -11.056  1.00  0.00    -0.259 OA
BRANCH  26  28
HETATM   28  O2  UNL     1       2.891  55.313 -10.638  1.00  0.00    -0.313 OA
BRANCH  28  29
HETATM   29  C5  UNL     1       4.279  55.431 -10.953  1.00  0.00     0.217 C 
BRANCH  29  30
HETATM   30  C6  UNL     1       5.033  55.611  -9.661  1.00  0.00    -0.034 A 
HETATM   31  C7  UNL     1       6.252  54.947  -9.462  1.00  0.00     0.009 A 
HETATM   32  C8  UNL     1       6.965  55.112  -8.275  1.00  0.00     0.001 A 
HETATM   33  C9  UNL     1       6.468  55.945  -7.275  1.00  0.00     0.000 A 
HETATM   34  C10 UNL     1       5.260  56.615  -7.462  1.00  0.00     0.001 A 
HETATM   35  C11 UNL     1       4.546  56.452  -8.651  1.00  0.00     0.009 A 
ENDBRANCH  29  30
ENDBRANCH  28  29
ENDBRANCH  26  28
ENDBRANCH   3  26
TORSDOF 5
ENDMDL
