MODEL 1
REMARK minimizedAffinity -8.24401093
REMARK CNNscore 0.807106078
REMARK CNNaffinity 7.10114479
REMARK  6 active torsions:
REMARK  status: ('A' for Active; 'I' for Inactive)
REMARK    1  A    between atoms: C2_2  and  C30_32 
REMARK    2  A    between atoms: C3_3  and  C4_4 
REMARK    3  A    between atoms: C4_4  and  C5_5 
REMARK    4  A    between atoms: C5_5  and  C6_6 
REMARK    5  A    between atoms: C6_6  and  C8_8 
REMARK    6  A    between atoms: C30_32  and  O4_34 
ROOT
HETATM    1  C8  UNL     1       5.251  55.999  -8.254  1.00  0.00    -0.002 C 
HETATM    2  C9  UNL     1       6.031  54.994  -9.149  1.00  0.00     0.007 C 
HETATM    3  C10 UNL     1       4.996  54.219  -9.985  1.00  0.00     0.015 C 
HETATM    4  C11 UNL     1       3.682  55.006  -9.826  1.00  0.00    -0.005 C 
HETATM    5  C12 UNL     1       3.727  56.182 -10.854  1.00  0.00     0.021 C 
HETATM    6  C13 UNL     1       2.340  54.327 -10.078  1.00  0.00    -0.000 C 
HETATM    7  C14 UNL     1       1.222  54.693  -9.398  1.00  0.00    -0.060 C 
HETATM    8  C15 UNL     1       1.287  55.801  -8.332  1.00  0.00     0.036 C 
HETATM    9  C16 UNL     1       2.665  56.427  -8.031  1.00  0.00     0.015 C 
HETATM   10  C17 UNL     1       3.799  55.434  -8.310  1.00  0.00    -0.028 C 
HETATM   11  C18 UNL     1       3.673  54.233  -7.317  1.00  0.00     0.016 C 
HETATM   12  C19 UNL     1      -0.174  54.049  -9.635  1.00  0.00    -0.014 C 
HETATM   13  C20 UNL     1      -1.014  55.074 -10.433  1.00  0.00     0.020 C 
HETATM   14  C21 UNL     1      -0.875  53.755  -8.274  1.00  0.00     0.021 C 
HETATM   15  C22 UNL     1      -1.948  52.670  -8.286  1.00  0.00     0.080 C 
HETATM   16  C23 UNL     1      -2.436  52.330  -9.670  1.00  0.00     0.135 C 
HETATM   17  O1  UNL     1      -3.642  52.288  -9.911  1.00  0.00    -0.297 OA
HETATM   18  C24 UNL     1      -1.375  51.953 -10.709  1.00  0.00     0.018 C 
HETATM   19  C25 UNL     1      -1.177  50.426 -10.608  1.00  0.00     0.023 C 
HETATM   20  C26 UNL     1      -1.919  52.256 -12.121  1.00  0.00     0.023 C 
HETATM   21  C27 UNL     1      -0.023  52.680 -10.378  1.00  0.00     0.020 C 
HETATM   22  C28 UNL     1       0.898  52.809 -11.589  1.00  0.00     0.090 C 
HETATM   23  C29 UNL     1       2.254  53.325 -11.188  1.00  0.00     0.157 C 
HETATM   24  O2  UNL     1       3.252  52.974 -11.815  1.00  0.00    -0.293 OA
ENDROOT
BRANCH   1  25
HETATM   25  C6  UNL     1       5.947  56.221  -6.882  1.00  0.00    -0.014 C 
HETATM   26  C7  UNL     1       5.791  57.650  -6.355  1.00  0.00     0.010 C 
BRANCH  25  27
HETATM   27  C5  UNL     1       7.444  55.792  -6.883  1.00  0.00     0.008 C 
BRANCH  27  28
HETATM   28  C4  UNL     1       8.189  55.781  -5.538  1.00  0.00     0.028 C 
BRANCH  28  29
HETATM   29  C3  UNL     1       8.924  57.057  -5.235  1.00  0.00    -0.013 C 
HETATM   30  C2  UNL     1      10.233  57.218  -4.960  1.00  0.00     0.008 C 
HETATM   31  C1  UNL     1      10.852  58.568  -4.756  1.00  0.00     0.055 C 
BRANCH  30  32
HETATM   32  C30 UNL     1      11.195  56.099  -4.879  1.00  0.00     0.171 C 
HETATM   33  O3  UNL     1      10.904  54.923  -4.752  1.00  0.00    -0.646 OA
BRANCH  32  34
HETATM   34  O4  UNL     1      12.461  56.499  -5.066  1.00  0.00    -0.773 OA
HETATM   35  H44 UNL     1      12.978  55.669  -5.043  1.00  0.00     0.167 HD
ENDBRANCH  32  34
ENDBRANCH  30  32
ENDBRANCH  28  29
ENDBRANCH  27  28
ENDBRANCH  25  27
ENDBRANCH   1  25
TORSDOF 6
ENDMDL
