MODEL 1
REMARK minimizedAffinity -9.15042305
REMARK  5 active torsions:
REMARK  status: ('A' for Active; 'I' for Inactive)
REMARK    1  A    between atoms: C2_2  and  C4_4 
REMARK    2  A    between atoms: C7_7  and  C8_8 
REMARK    3  A    between atoms: C8_8  and  O2_10 
REMARK    4  A    between atoms: C22_25  and  C24_27 
REMARK    5  A    between atoms: C24_27  and  O4_28 
ROOT
HETATM    1  C4  UNL     1      -7.241   6.603  14.463  1.00  0.00     0.019 C 
HETATM    2  C5  UNL     1      -7.301   5.346  15.333  1.00  0.00     0.011 C 
HETATM    3  C6  UNL     1      -7.045   4.189  14.373  1.00  0.00     0.021 C 
HETATM    4  C7  UNL     1      -6.303   4.761  13.141  1.00  0.00     0.050 C 
HETATM    5  C9  UNL     1      -4.930   4.090  12.939  1.00  0.00     0.022 C 
HETATM    6  C10 UNL     1      -3.913   4.445  14.024  1.00  0.00     0.011 C 
HETATM    7  C11 UNL     1      -3.629   5.971  14.184  1.00  0.00    -0.032 C 
HETATM    8  C12 UNL     1      -3.739   6.264  15.707  1.00  0.00     0.016 C 
HETATM    9  C13 UNL     1      -4.694   6.799  13.381  1.00  0.00     0.000 C 
HETATM   10  C14 UNL     1      -4.491   8.310  13.551  1.00  0.00     0.006 C 
HETATM   11  C15 UNL     1      -3.087   8.754  13.118  1.00  0.00     0.006 C 
HETATM   12  C16 UNL     1      -1.954   7.959  13.812  1.00  0.00     0.003 C 
HETATM   13  C17 UNL     1      -0.496   8.546  13.549  1.00  0.00    -0.035 C 
HETATM   14  C18 UNL     1      -0.154   8.626  12.043  1.00  0.00     0.016 C 
HETATM   15  C19 UNL     1      -0.461  10.018  14.090  1.00  0.00     0.017 C 
HETATM   16  C20 UNL     1       0.875  10.491  14.650  1.00  0.00     0.080 C 
HETATM   17  C21 UNL     1       2.059   9.727  14.118  1.00  0.00     0.137 C 
HETATM   18  O3  UNL     1       3.058  10.329  13.719  1.00  0.00    -0.297 OA
HETATM   19  C22 UNL     1       2.038   8.201  14.255  1.00  0.00     0.042 C 
HETATM   20  C23 UNL     1       2.819   7.565  13.085  1.00  0.00     0.026 C 
HETATM   21  C25 UNL     1       0.548   7.706  14.369  1.00  0.00     0.012 C 
HETATM   22  C26 UNL     1       0.402   6.191  14.134  1.00  0.00     0.007 C 
HETATM   23  C27 UNL     1      -1.009   5.690  14.453  1.00  0.00     0.011 C 
HETATM   24  C28 UNL     1      -2.139   6.394  13.642  1.00  0.00    -0.032 C 
HETATM   25  C29 UNL     1      -1.987   5.956  12.153  1.00  0.00     0.016 C 
HETATM   26  C30 UNL     1      -6.179   6.309  13.370  1.00  0.00     0.017 C 
ENDROOT
BRANCH   4  27
HETATM   27  C8  UNL     1      -7.176   4.475  11.910  1.00  0.00     0.149 C 
HETATM   28  O1  UNL     1      -8.276   4.942  11.658  1.00  0.00    -0.649 OA
BRANCH  27  29
HETATM   29  O2  UNL     1      -6.635   3.572  11.069  1.00  0.00    -0.776 OA
HETATM   30  H11 UNL     1      -7.309   3.479  10.365  1.00  0.00     0.167 HD
ENDBRANCH  27  29
ENDBRANCH   4  27
BRANCH   1  31
HETATM   31  C2  UNL     1      -7.249   7.947  15.159  1.00  0.00    -0.088 C 
HETATM   32  C1  UNL     1      -6.198   8.500  15.781  1.00  0.00     0.014 C 
HETATM   33  C3  UNL     1      -8.593   8.632  15.201  1.00  0.00     0.043 C 
ENDBRANCH   1  31
BRANCH  19  34
HETATM   34  C24 UNL     1       2.788   7.903  15.582  1.00  0.00     0.181 C 
BRANCH  34  35
HETATM   35  O4  UNL     1       3.212   6.547  15.677  1.00  0.00    -0.400 OA
HETATM   36  H37 UNL     1       3.744   6.340  14.880  1.00  0.00     0.209 HD
ENDBRANCH  34  35
ENDBRANCH  19  34
TORSDOF 5
ENDMDL
