MODEL 1
REMARK minimizedAffinity -7.1991992
REMARK CNNscore 0.220397651
REMARK CNNaffinity 5.67571211
REMARK  13 active torsions:
REMARK  status: ('A' for Active; 'I' for Inactive)
REMARK    1  A    between atoms: C3_3  and  O1_4 
REMARK    2  A    between atoms: N1_14  and  O2_16 
REMARK    3  A    between atoms: O2_16  and  C13_17 
REMARK    4  A    between atoms: C13_17  and  C14_18 
REMARK       I    between atoms: C14_18  and  N2_20 
REMARK    5  A    between atoms: N2_20  and  C15_21 
REMARK    6  A    between atoms: C15_21  and  C16_22 
REMARK    7  A    between atoms: C15_21  and  C21_32 
REMARK       I    between atoms: C16_22  and  N3_24 
REMARK    8  A    between atoms: N3_24  and  C17_25 
REMARK    9  A    between atoms: C17_25  and  C18_26 
REMARK   10  A    between atoms: C17_25  and  C19_28 
REMARK   11  A    between atoms: C18_26  and  S1_27 
REMARK   12  A    between atoms: C19_28  and  C20_29 
REMARK   13  A    between atoms: C20_29  and  O6_31 
ROOT
HETATM    1  C1  UNL     1      10.674  13.933  19.858  1.00  0.00     0.015 C 
HETATM    2  C2  UNL     1       9.746  13.458  20.460  1.00  0.00    -0.078 C 
HETATM    3  C3  UNL     1       8.615  12.886  21.208  1.00  0.00     0.128 C 
HETATM    4  C4  UNL     1       9.086  12.175  22.474  1.00  0.00     0.052 C 
HETATM    5  C5  UNL     1       7.800  11.986  23.287  1.00  0.00     0.010 C 
HETATM    6  C6  UNL     1       6.842  13.133  22.879  1.00  0.00     0.002 C 
HETATM    7  C7  UNL     1       5.355  12.721  22.661  1.00  0.00    -0.004 C 
HETATM    8  C8  UNL     1       5.101  11.305  22.102  1.00  0.00     0.010 C 
HETATM    9  C9  UNL     1       3.612  10.964  22.044  1.00  0.00     0.035 C 
HETATM   10  C10 UNL     1       2.751  12.009  21.384  1.00  0.00    -0.069 C 
HETATM   11  C11 UNL     1       1.720  11.617  20.609  1.00  0.00     0.030 C 
HETATM   12  C12 UNL     1       0.714  12.584  20.077  1.00  0.00     0.032 C 
HETATM   13  N1  UNL     1      -0.342  12.276  19.385  1.00  0.00    -0.271 N 
ATOM     14  H1  UNL     1      -1.003  12.962  19.020  1.00  0.00     0.194 HD
HETATM   15  C24 UNL     1       0.890  14.049  20.429  1.00  0.00     0.060 C 
HETATM   16  C25 UNL     1       2.351  14.384  20.677  1.00  0.00     0.020 C 
HETATM   17  C26 UNL     1       3.037  13.467  21.729  1.00  0.00    -0.016 C 
HETATM   18  C27 UNL     1       2.399  13.759  23.114  1.00  0.00     0.020 C 
HETATM   19  C28 UNL     1       4.586  13.778  21.821  1.00  0.00     0.002 C 
HETATM   20  C29 UNL     1       5.314  13.928  20.472  1.00  0.00     0.007 C 
HETATM   21  C30 UNL     1       6.692  14.543  20.657  1.00  0.00     0.014 C 
HETATM   22  C31 UNL     1       7.589  13.928  21.751  1.00  0.00     0.003 C 
HETATM   23  C32 UNL     1       8.328  15.127  22.428  1.00  0.00     0.020 C 
ENDROOT
BRANCH   3  24
HETATM   24  O1  UNL     1       7.964  11.922  20.381  1.00  0.00    -0.377 OA
HETATM   25  H2  UNL     1       7.808  12.342  19.515  1.00  0.00     0.211 HD
ENDBRANCH   3  24
BRANCH  13  26
HETATM   26  O2  UNL     1      -0.469  10.891  19.198  1.00  0.00    -0.271 OA
BRANCH  26  27
HETATM   27  C13 UNL     1       0.235  10.524  18.020  1.00  0.00     0.303 C 
BRANCH  27  28
HETATM   28  C14 UNL     1      -0.723  10.480  16.841  1.00  0.00     0.244 C 
HETATM   29  O3  UNL     1      -1.516  11.390  16.599  1.00  0.00    -0.271 OA
HETATM   30  N2  UNL     1      -0.593   9.359  16.033  1.00  0.00    -0.346 N 
HETATM   31  H16 UNL     1       0.307   8.893  16.089  1.00  0.00     0.163 HD
BRANCH  30  32
HETATM   32  C15 UNL     1      -1.239   9.356  14.724  1.00  0.00     0.180 C 
BRANCH  32  33
HETATM   33  C16 UNL     1      -0.200   8.902  13.675  1.00  0.00     0.241 C 
HETATM   34  O4  UNL     1       1.001   8.819  13.928  1.00  0.00    -0.271 OA
HETATM   35  N3  UNL     1      -0.738   8.548  12.458  1.00  0.00    -0.353 N 
HETATM   36  H18 UNL     1      -1.748   8.501  12.358  1.00  0.00     0.163 HD
BRANCH  35  37
HETATM   37  C17 UNL     1       0.068   7.992  11.372  1.00  0.00     0.103 C 
BRANCH  37  38
HETATM   38  C18 UNL     1      -0.329   8.587  10.005  1.00  0.00     0.096 C 
BRANCH  38  39
HETATM   39  S1  UNL     1       0.823   8.200   8.639  1.00  0.00    -0.180 SA
HETATM   40  H22 UNL     1       0.050   8.684   7.653  1.00  0.00     0.101 HD
ENDBRANCH  38  39
ENDBRANCH  37  38
BRANCH  37  41
HETATM   41  C19 UNL     1       0.133   6.463  11.406  1.00  0.00     0.136 C 
BRANCH  41  42
HETATM   42  C20 UNL     1       1.520   5.900  11.440  1.00  0.00     0.141 C 
HETATM   43  O5  UNL     1       2.488   6.415  11.980  1.00  0.00    -0.650 OA
BRANCH  42  44
HETATM   44  O6  UNL     1       1.636   4.722  10.795  1.00  0.00    -0.776 OA
HETATM   45  H25 UNL     1       2.583   4.490  10.900  1.00  0.00     0.167 HD
ENDBRANCH  42  44
ENDBRANCH  41  42
ENDBRANCH  37  41
ENDBRANCH  35  37
ENDBRANCH  32  33
BRANCH  32  46
HETATM   46  C21 UNL     1      -2.508   8.476  14.667  1.00  0.00     0.009 C 
HETATM   47  C22 UNL     1      -2.780   7.696  15.956  1.00  0.00     0.012 C 
HETATM   48  C23 UNL     1      -3.735   9.308  14.295  1.00  0.00     0.012 C 
ENDBRANCH  32  46
ENDBRANCH  30  32
ENDBRANCH  27  28
ENDBRANCH  26  27
ENDBRANCH  13  26
TORSDOF 13
ENDMDL
