MODEL 1
REMARK minimizedAffinity -7.81481314
REMARK CNNscore 0.457540512
REMARK CNNaffinity 7.26041603
REMARK  8 active torsions:
REMARK  status: ('A' for Active; 'I' for Inactive)
REMARK    1  A    between atoms: C3_3  and  O1_4 
REMARK    2  A    between atoms: N1_14  and  O2_16 
REMARK    3  A    between atoms: O2_16  and  C13_17 
REMARK    4  A    between atoms: C13_17  and  C14_18 
REMARK       I    between atoms: C14_18  and  N2_20 
REMARK    5  A    between atoms: N2_20  and  C15_21 
REMARK    6  A    between atoms: C15_21  and  C16_22 
REMARK    7  A    between atoms: C16_22  and  O4_23 
REMARK    8  A    between atoms: C16_22  and  C17_24 
ROOT
HETATM    1  C1  UNL     1       0.926  54.179  -7.103  1.00  0.00     0.015 C 
HETATM    2  C2  UNL     1       1.505  53.544  -7.943  1.00  0.00    -0.078 C 
HETATM    3  C3  UNL     1       2.228  52.778  -8.971  1.00  0.00     0.128 C 
HETATM    4  C4  UNL     1       2.859  51.504  -8.400  1.00  0.00     0.052 C 
HETATM    5  C5  UNL     1       3.248  50.737  -9.658  1.00  0.00     0.010 C 
HETATM    6  C6  UNL     1       2.031  50.903 -10.575  1.00  0.00     0.002 C 
HETATM    7  C7  UNL     1       2.266  50.675 -12.088  1.00  0.00    -0.004 C 
HETATM    8  C8  UNL     1       3.558  51.265 -12.681  1.00  0.00     0.010 C 
HETATM    9  C9  UNL     1       3.695  50.964 -14.174  1.00  0.00     0.035 C 
HETATM   10  C10 UNL     1       2.460  51.294 -14.982  1.00  0.00    -0.069 C 
HETATM   11  C11 UNL     1       2.571  51.976 -16.136  1.00  0.00     0.030 C 
HETATM   12  C12 UNL     1       1.406  52.191 -17.033  1.00  0.00     0.032 C 
HETATM   13  N1  UNL     1       1.569  52.973 -18.062  1.00  0.00    -0.271 N 
ATOM     14  H1  UNL     1       2.432  53.475 -18.271  1.00  0.00     0.194 HD
HETATM   15  C23 UNL     1       0.133  51.433 -16.717  1.00  0.00     0.060 C 
HETATM   16  C24 UNL     1      -0.080  51.386 -15.208  1.00  0.00     0.020 C 
HETATM   17  C25 UNL     1       1.129  50.786 -14.428  1.00  0.00    -0.016 C 
HETATM   18  C26 UNL     1       1.079  49.247 -14.616  1.00  0.00     0.020 C 
HETATM   19  C27 UNL     1       1.026  51.145 -12.895  1.00  0.00     0.002 C 
HETATM   20  C28 UNL     1       0.726  52.648 -12.632  1.00  0.00     0.007 C 
HETATM   21  C29 UNL     1       1.284  53.239 -11.336  1.00  0.00     0.014 C 
HETATM   22  C30 UNL     1       1.346  52.253 -10.161  1.00  0.00     0.003 C 
HETATM   23  C31 UNL     1      -0.106  51.935  -9.705  1.00  0.00     0.020 C 
ENDROOT
BRANCH   3  24
HETATM   24  O1  UNL     1       3.301  53.591  -9.455  1.00  0.00    -0.377 OA
HETATM   25  H2  UNL     1       3.719  54.008  -8.683  1.00  0.00     0.211 HD
ENDBRANCH   3  24
BRANCH  13  26
HETATM   26  O2  UNL     1       0.410  53.040 -18.847  1.00  0.00    -0.271 OA
BRANCH  26  27
HETATM   27  C13 UNL     1       0.747  53.561 -20.129  1.00  0.00     0.303 C 
BRANCH  27  28
HETATM   28  C14 UNL     1       0.428  52.527 -21.203  1.00  0.00     0.243 C 
HETATM   29  O3  UNL     1       0.256  51.339 -20.942  1.00  0.00    -0.271 OA
HETATM   30  N2  UNL     1       0.326  53.035 -22.481  1.00  0.00    -0.356 N 
HETATM   31  H16 UNL     1       0.677  53.976 -22.624  1.00  0.00     0.162 HD
BRANCH  30  32
HETATM   32  C15 UNL     1       0.167  52.164 -23.635  1.00  0.00     0.159 C 
BRANCH  32  33
HETATM   33  C16 UNL     1      -0.945  52.617 -24.603  1.00  0.00     0.170 C 
BRANCH  33  34
HETATM   34  O4  UNL     1      -0.606  52.217 -25.935  1.00  0.00    -0.389 OA
HETATM   35  H20 UNL     1      -1.340  52.505 -26.506  1.00  0.00     0.210 HD
ENDBRANCH  33  34
BRANCH  33  36
HETATM   36  C17 UNL     1      -2.287  52.026 -24.236  1.00  0.00    -0.013 A 
HETATM   37  C18 UNL     1      -2.485  51.304 -23.055  1.00  0.00     0.013 A 
HETATM   38  C19 UNL     1      -3.749  50.808 -22.750  1.00  0.00     0.025 A 
HETATM   39  C20 UNL     1      -4.798  51.057 -23.627  1.00  0.00     0.005 A 
HETATM   40  C21 UNL     1      -6.172  50.532 -23.323  1.00  0.00     0.068 C 
HETATM   41  N3  UNL     1      -4.638  51.762 -24.770  1.00  0.00    -0.369 N 
HETATM   42  C22 UNL     1      -3.396  52.224 -25.050  1.00  0.00     0.097 A 
ATOM     43  H3  UNL     1      -5.422  51.939 -25.398  1.00  0.00     0.165 HD
ENDBRANCH  33  36
ENDBRANCH  32  33
ENDBRANCH  30  32
ENDBRANCH  27  28
ENDBRANCH  26  27
ENDBRANCH  13  26
TORSDOF 8
ENDMDL
