MODEL 1
REMARK minimizedAffinity -8.89240074
REMARK CNNscore 0.315404803
REMARK CNNaffinity 7.03263998
REMARK  12 active torsions:
REMARK  status: ('A' for Active; 'I' for Inactive)
REMARK    1  A    between atoms: C2_2  and  C3_3 
REMARK    2  A    between atoms: C6_6  and  C7_7 
REMARK    3  A    between atoms: C7_7  and  C8_8 
REMARK    4  A    between atoms: C15_19  and  C16_20 
REMARK    5  A    between atoms: C16_20  and  C17_21 
REMARK    6  A    between atoms: C18_22  and  C19_23 
REMARK    7  A    between atoms: C21_25  and  C22_26 
REMARK    8  A    between atoms: C23_28  and  C24_29 
REMARK    9  A    between atoms: C27_34  and  C28_35 
REMARK   10  A    between atoms: C28_35  and  C29_36 
REMARK   11  A    between atoms: C29_36  and  C30_37 
REMARK   12  A    between atoms: C30_37  and  O5_39 
ROOT
HETATM    1  C8  UNL     1      -2.740   7.132  13.954  1.00  0.00     0.016 C 
HETATM    2  N1  UNL     1      -3.054   8.159  14.692  1.00  0.00    -0.362 N 
ATOM      3  H1  UNL     1      -3.994   8.520  14.854  1.00  0.00     0.165 HD
HETATM    4  C9  UNL     1      -1.884   8.666  15.213  1.00  0.00     0.023 C 
HETATM    5  C10 UNL     1      -1.904   9.427  16.319  1.00  0.00    -0.000 A 
HETATM    6  C11 UNL     1      -3.213   9.894  17.008  1.00  0.00     0.127 A 
HETATM    7  C12 UNL     1      -2.639  10.807  18.132  1.00  0.00     0.166 A 
HETATM    8  O1  UNL     1      -3.295  11.439  18.948  1.00  0.00    -0.292 OA
HETATM    9  C13 UNL     1      -1.191  10.775  18.060  1.00  0.00     0.045 A 
HETATM   10  C14 UNL     1      -0.816   9.973  17.023  1.00  0.00     0.055 A 
HETATM   11  N2  UNL     1       0.529   9.892  16.980  1.00  0.00    -0.357 N 
HETATM   12  C15 UNL     1       1.039  10.712  17.985  1.00  0.00     0.022 A 
HETATM   13  C25 UNL     1      -0.036  11.276  18.685  1.00  0.00    -0.023 A 
HETATM   14  C26 UNL     1      -0.012  12.200  19.847  1.00  0.00     0.051 C 
HETATM   15  C27 UNL     1      -0.703   8.157  14.418  1.00  0.00     0.046 C 
HETATM   16  C32 UNL     1      -1.264   6.802  13.935  1.00  0.00     0.041 C 
HETATM   17  C33 UNL     1      -0.956   5.672  14.917  1.00  0.00     0.017 C 
HETATM   18  H10 UNL     1       1.093   9.334  16.355  1.00  0.00     0.166 HD
ENDROOT
BRANCH  15  19
HETATM   19  C28 UNL     1      -0.363   9.047  13.201  1.00  0.00     0.021 C 
BRANCH  19  20
HETATM   20  C29 UNL     1      -0.792   8.471  11.851  1.00  0.00     0.112 C 
BRANCH  20  21
HETATM   21  C30 UNL     1       0.404   8.185  10.971  1.00  0.00     0.258 C 
HETATM   22  O4  UNL     1       1.376   7.526  11.307  1.00  0.00    -0.265 OA
BRANCH  21  23
HETATM   23  O5  UNL     1       0.258   8.817   9.773  1.00  0.00    -0.326 OA
HETATM   24  C31 UNL     1       1.042   8.257   8.719  1.00  0.00     0.213 C 
ENDBRANCH  21  23
ENDBRANCH  20  21
ENDBRANCH  19  20
ENDBRANCH  15  19
BRANCH   1  25
HETATM   25  C7  UNL     1      -3.794   6.376  13.242  1.00  0.00     0.055 C 
BRANCH  25  26
HETATM   26  C6  UNL     1      -3.748   5.240  12.538  1.00  0.00     0.043 A 
HETATM   27  C4  UNL     1      -4.836   4.287  12.349  1.00  0.00    -0.019 A 
HETATM   28  C3  UNL     1      -4.437   3.242  11.590  1.00  0.00     0.039 A 
HETATM   29  C5  UNL     1      -6.185   4.515  12.952  1.00  0.00     0.052 C 
HETATM   30  C34 UNL     1      -3.005   3.523  11.254  1.00  0.00     0.256 A 
HETATM   31  N4  UNL     1      -2.698   4.722  11.853  1.00  0.00    -0.322 N 
HETATM   32  O6  UNL     1      -2.238   2.849  10.591  1.00  0.00    -0.267 OA
HETATM   33  H36 UNL     1      -1.772   5.101  11.759  1.00  0.00     0.169 HD
BRANCH  28  34
HETATM   34  C2  UNL     1      -5.201   2.091  11.175  1.00  0.00     0.007 C 
HETATM   35  C1  UNL     1      -6.300   1.608  11.768  1.00  0.00     0.012 C 
ENDBRANCH  28  34
ENDBRANCH  25  26
ENDBRANCH   1  25
BRANCH  12  36
HETATM   36  C16 UNL     1       2.519  10.869  18.160  1.00  0.00     0.115 C 
BRANCH  36  37
HETATM   37  C17 UNL     1       2.951  10.620  19.575  1.00  0.00     0.022 A 
HETATM   38  C18 UNL     1       3.902  11.241  20.373  1.00  0.00    -0.020 A 
HETATM   39  C21 UNL     1       3.877  10.578  21.653  1.00  0.00     0.040 A 
HETATM   40  C23 UNL     1       2.910   9.585  21.583  1.00  0.00     0.084 A 
HETATM   41  N3  UNL     1       2.387   9.610  20.313  1.00  0.00    -0.356 N 
HETATM   42  H20 UNL     1       1.678   8.960  19.994  1.00  0.00     0.166 HD
BRANCH  38  43
HETATM   43  C19 UNL     1       4.783  12.389  19.974  1.00  0.00     0.037 C 
HETATM   44  C20 UNL     1       5.920  11.960  19.059  1.00  0.00     0.010 C 
ENDBRANCH  38  43
BRANCH  39  45
HETATM   45  C22 UNL     1       4.700  10.878  22.817  1.00  0.00     0.273 C 
HETATM   46  O2  UNL     1       5.607  11.703  22.813  1.00  0.00    -0.301 OA
ENDBRANCH  39  45
BRANCH  40  47
HETATM   47  C24 UNL     1       2.438   8.632  22.562  1.00  0.00     0.288 C 
HETATM   48  O3  UNL     1       1.672   7.716  22.271  1.00  0.00    -0.300 OA
ENDBRANCH  40  47
ENDBRANCH  36  37
ENDBRANCH  12  36
TORSDOF 12
ENDMDL
