MODEL 1
REMARK minimizedAffinity -9.9714613
REMARK  6 active torsions:
REMARK  status: ('A' for Active; 'I' for Inactive)
REMARK    1  A    between atoms: C2_2  and  C30_31 
REMARK    2  A    between atoms: C3_3  and  C4_4 
REMARK    3  A    between atoms: C4_4  and  C5_5 
REMARK    4  A    between atoms: C5_5  and  C6_6 
REMARK    5  A    between atoms: C6_6  and  C8_8 
REMARK    6  A    between atoms: C30_31  and  O3_33 
ROOT
HETATM    1  C8  UNL     1      -5.240   7.024  15.042  1.00  0.00    -0.002 C 
HETATM    2  C9  UNL     1      -5.777   8.221  14.204  1.00  0.00     0.007 C 
HETATM    3  C10 UNL     1      -4.618   8.720  13.318  1.00  0.00     0.015 C 
HETATM    4  C11 UNL     1      -3.365   8.017  13.877  1.00  0.00    -0.013 C 
HETATM    5  C12 UNL     1      -2.892   8.881  15.092  1.00  0.00     0.021 C 
HETATM    6  C13 UNL     1      -2.152   7.875  12.961  1.00  0.00    -0.070 C 
HETATM    7  C14 UNL     1      -1.824   8.826  12.061  1.00  0.00    -0.022 C 
HETATM    8  C15 UNL     1      -0.596   8.794  11.192  1.00  0.00     0.034 C 
HETATM    9  C16 UNL     1       0.109   7.430  11.243  1.00  0.00     0.013 C 
HETATM   10  C17 UNL     1       1.388   7.285  10.358  1.00  0.00     0.018 C 
HETATM   11  C18 UNL     1       2.589   8.121  10.814  1.00  0.00     0.023 C 
HETATM   12  C19 UNL     1       1.067   7.658   8.894  1.00  0.00     0.023 C 
HETATM   13  C20 UNL     1       1.811   5.803  10.373  1.00  0.00     0.135 C 
HETATM   14  O1  UNL     1       2.620   5.349   9.562  1.00  0.00    -0.297 OA
HETATM   15  C21 UNL     1       1.180   4.902  11.416  1.00  0.00     0.080 C 
HETATM   16  C22 UNL     1       1.117   5.626  12.753  1.00  0.00     0.017 C 
HETATM   17  C23 UNL     1       0.232   6.907  12.728  1.00  0.00    -0.031 C 
HETATM   18  C24 UNL     1       0.876   7.929  13.703  1.00  0.00     0.016 C 
HETATM   19  C25 UNL     1      -1.261   6.631  13.182  1.00  0.00     0.024 C 
HETATM   20  C26 UNL     1      -1.431   6.044  14.604  1.00  0.00     0.010 C 
HETATM   21  C27 UNL     1      -2.896   5.821  15.057  1.00  0.00     0.011 C 
HETATM   22  C28 UNL     1      -3.951   6.612  14.255  1.00  0.00    -0.029 C 
HETATM   23  C29 UNL     1      -4.387   5.765  13.016  1.00  0.00     0.016 C 
ENDROOT
BRANCH   1  24
HETATM   24  C6  UNL     1      -6.336   5.961  15.330  1.00  0.00    -0.014 C 
HETATM   25  C7  UNL     1      -7.065   6.213  16.654  1.00  0.00     0.010 C 
BRANCH  24  26
HETATM   26  C5  UNL     1      -7.371   5.829  14.180  1.00  0.00     0.008 C 
BRANCH  26  27
HETATM   27  C4  UNL     1      -7.709   4.393  13.766  1.00  0.00     0.028 C 
BRANCH  27  28
HETATM   28  C3  UNL     1      -6.765   3.907  12.700  1.00  0.00    -0.013 C 
HETATM   29  C2  UNL     1      -6.668   2.659  12.196  1.00  0.00     0.008 C 
HETATM   30  C1  UNL     1      -7.467   1.468  12.633  1.00  0.00     0.055 C 
BRANCH  29  31
HETATM   31  C30 UNL     1      -5.656   2.455  11.127  1.00  0.00     0.171 C 
HETATM   32  O2  UNL     1      -5.175   3.309  10.403  1.00  0.00    -0.646 OA
BRANCH  31  33
HETATM   33  O3  UNL     1      -5.292   1.168  11.009  1.00  0.00    -0.773 OA
HETATM   34  H46 UNL     1      -4.637   1.185  10.280  1.00  0.00     0.167 HD
ENDBRANCH  31  33
ENDBRANCH  29  31
ENDBRANCH  27  28
ENDBRANCH  26  27
ENDBRANCH  24  26
ENDBRANCH   1  24
TORSDOF 6
ENDMDL
