MODEL 1
REMARK minimizedAffinity -6.81241608
REMARK CNNscore 0.681726635
REMARK CNNaffinity 6.08270264
REMARK  13 active torsions:
REMARK  status: ('A' for Active; 'I' for Inactive)
REMARK    1  A    between atoms: N1_2  and  C2_3 
REMARK    2  A    between atoms: C2_3  and  C3_4 
REMARK    3  A    between atoms: C3_4  and  C4_5 
REMARK    4  A    between atoms: C19_22  and  C23_27 
REMARK    5  A    between atoms: C20_23  and  O3_24 
REMARK    6  A    between atoms: C25_29  and  O4_30 
REMARK    7  A    between atoms: C27_32  and  C28_33 
REMARK    8  A    between atoms: C28_33  and  C30_35 
REMARK    9  A    between atoms: C30_35  and  C31_36 
REMARK   10  A    between atoms: C31_36  and  O5_37 
REMARK   11  A    between atoms: C31_36  and  C32_38 
REMARK   12  A    between atoms: C33_39  and  C35_41 
REMARK   13  A    between atoms: C35_41  and  O7_43 
ROOT
HETATM    1  C4  UNL     1     -15.108  -6.131  13.594  1.00  0.00     0.023 C 
HETATM    2  C5  UNL     1     -15.825  -6.994  12.524  1.00  0.00     0.024 C 
HETATM    3  C6  UNL     1     -13.780  -5.630  12.999  1.00  0.00     0.135 C 
HETATM    4  O1  UNL     1     -12.696  -6.153  13.274  1.00  0.00    -0.297 OA
HETATM    5  C7  UNL     1     -13.812  -4.450  12.053  1.00  0.00     0.080 C 
HETATM    6  C8  UNL     1     -15.227  -4.035  11.691  1.00  0.00     0.022 C 
HETATM    7  C9  UNL     1     -16.069  -3.670  12.938  1.00  0.00    -0.004 C 
HETATM    8  C10 UNL     1     -17.587  -3.625  12.502  1.00  0.00     0.015 C 
HETATM    9  C11 UNL     1     -17.979  -2.643  11.381  1.00  0.00     0.001 C 
HETATM   10  C12 UNL     1     -19.145  -1.701  11.727  1.00  0.00     0.000 C 
HETATM   11  C13 UNL     1     -18.721  -0.324  12.264  1.00  0.00     0.001 C 
HETATM   12  C14 UNL     1     -18.237  -0.334  13.723  1.00  0.00     0.011 C 
HETATM   13  C15 UNL     1     -16.823   0.310  14.100  1.00  0.00    -0.016 C 
HETATM   14  C16 UNL     1     -15.818   0.294  12.952  1.00  0.00     0.094 C 
HETATM   15  C17 UNL     1     -15.338  -1.115  12.649  1.00  0.00     0.157 C 
HETATM   16  O2  UNL     1     -14.552  -1.291  11.721  1.00  0.00    -0.293 OA
HETATM   17  C18 UNL     1     -15.776  -2.264  13.535  1.00  0.00     0.003 C 
HETATM   18  C19 UNL     1     -16.002  -1.957  14.840  1.00  0.00    -0.029 C 
HETATM   19  C20 UNL     1     -16.223  -3.057  15.833  1.00  0.00     0.149 C 
HETATM   20  C21 UNL     1     -15.491  -4.321  15.398  1.00  0.00     0.043 C 
HETATM   21  C22 UNL     1     -15.953  -4.856  14.027  1.00  0.00     0.017 C 
HETATM   22  C23 UNL     1     -16.134  -0.495  15.297  1.00  0.00     0.017 C 
HETATM   23  C24 UNL     1     -14.703  -0.026  15.698  1.00  0.00     0.023 C 
HETATM   24  C25 UNL     1     -17.131  -0.146  16.442  1.00  0.00     0.132 C 
HETATM   25  C26 UNL     1     -17.507   1.331  16.206  1.00  0.00     0.038 C 
HETATM   26  C27 UNL     1     -17.026   1.706  14.776  1.00  0.00     0.002 C 
ENDROOT
BRANCH  26  27
HETATM   27  C28 UNL     1     -17.925   2.774  14.093  1.00  0.00    -0.011 C 
HETATM   28  C29 UNL     1     -17.627   2.937  12.598  1.00  0.00     0.010 C 
BRANCH  27  29
HETATM   29  C30 UNL     1     -17.890   4.151  14.809  1.00  0.00     0.040 C 
BRANCH  29  30
HETATM   30  C31 UNL     1     -16.547   4.898  14.903  1.00  0.00     0.142 C 
BRANCH  30  31
HETATM   31  O5  UNL     1     -16.499   5.568  16.159  1.00  0.00    -0.392 OA
HETATM   32  H48 UNL     1     -15.647   6.036  16.198  1.00  0.00     0.210 HD
ENDBRANCH  30  31
BRANCH  30  33
HETATM   33  C32 UNL     1     -16.267   5.879  13.802  1.00  0.00     0.018 C 
HETATM   34  C33 UNL     1     -15.088   6.394  13.402  1.00  0.00     0.010 C 
HETATM   35  C34 UNL     1     -13.753   6.154  14.036  1.00  0.00     0.055 C 
BRANCH  34  36
HETATM   36  C35 UNL     1     -15.141   7.333  12.253  1.00  0.00     0.171 C 
HETATM   37  O6  UNL     1     -15.849   7.234  11.264  1.00  0.00    -0.646 OA
BRANCH  36  38
HETATM   38  O7  UNL     1     -14.277   8.353  12.392  1.00  0.00    -0.773 OA
HETATM   39  H53 UNL     1     -14.412   8.883  11.578  1.00  0.00     0.167 HD
ENDBRANCH  36  38
ENDBRANCH  34  36
ENDBRANCH  30  33
ENDBRANCH  29  30
ENDBRANCH  27  29
ENDBRANCH  26  27
BRANCH  24  40
HETATM   40  O4  UNL     1     -16.601  -0.293  17.750  1.00  0.00    -0.394 OA
HETATM   41  H37 UNL     1     -16.265  -1.216  17.801  1.00  0.00     0.210 HD
ENDBRANCH  24  40
BRANCH  19  42
HETATM   42  O3  UNL     1     -15.717  -2.673  17.108  1.00  0.00    -0.391 OA
HETATM   43  H29 UNL     1     -14.769  -2.898  17.134  1.00  0.00     0.210 HD
ENDBRANCH  19  42
BRANCH   1  44
HETATM   44  C3  UNL     1     -14.776  -7.090  14.791  1.00  0.00     0.047 C 
BRANCH  44  45
HETATM   45  C2  UNL     1     -13.277  -7.340  15.032  1.00  0.00     0.270 C 
BRANCH  45  46
HETATM   46  N1  UNL     1     -13.022  -8.490  15.905  1.00  0.00     0.079 N 
HETATM   47  C1  UNL     1     -12.372  -8.119  17.158  1.00  0.00     0.306 C 
HETATM   48  H4  UNL     1     -12.419  -9.150  15.411  1.00  0.00     0.315 HD
ENDBRANCH  45  46
ENDBRANCH  44  45
ENDBRANCH   1  44
TORSDOF 13
ENDMDL
