MODEL 1
REMARK minimizedAffinity -10.1383533
REMARK  7 active torsions:
REMARK  status: ('A' for Active; 'I' for Inactive)
REMARK    1  A    between atoms: C2_2  and  C4_4 
REMARK    2  A    between atoms: C7_7  and  O1_9 
REMARK    3  A    between atoms: C9_10  and  C10_11 
REMARK    4  A    between atoms: C11_12  and  C12_13 
REMARK    5  A    between atoms: C14_15  and  C15_16 
REMARK    6  A    between atoms: C24_26  and  C26_28 
REMARK    7  A    between atoms: C29_32  and  O4_34 
ROOT
HETATM    1  C15 UNL     1      -4.935  47.785 -29.181  1.00  0.00     0.149 C 
HETATM    2  C16 UNL     1      -6.310  47.213 -28.839  1.00  0.00     0.054 C 
HETATM    3  C17 UNL     1      -7.039  46.997 -30.200  1.00  0.00     0.050 C 
HETATM    4  C18 UNL     1      -5.820  47.069 -31.163  1.00  0.00     0.272 C 
HETATM    5  O2  UNL     1      -5.056  45.869 -31.265  1.00  0.00    -0.360 OA
HETATM    6  C19 UNL     1      -5.550  44.947 -32.216  1.00  0.00     0.171 C 
HETATM    7  C20 UNL     1      -6.448  43.920 -31.549  1.00  0.00     0.027 C 
HETATM    8  C21 UNL     1      -7.017  44.350 -30.201  1.00  0.00     0.012 C 
HETATM    9  C22 UNL     1      -7.858  45.648 -30.190  1.00  0.00     0.032 C 
HETATM   10  C23 UNL     1      -9.014  45.588 -31.215  1.00  0.00    -0.066 C 
HETATM   11  C24 UNL     1     -10.099  44.777 -31.102  1.00  0.00    -0.021 C 
HETATM   12  C25 UNL     1     -11.204  44.666 -32.115  1.00  0.00     0.052 C 
HETATM   13  C27 UNL     1      -8.878  46.562 -32.362  1.00  0.00     0.038 C 
HETATM   14  C28 UNL     1      -8.695  48.009 -31.904  1.00  0.00     0.042 C 
HETATM   15  C29 UNL     1      -8.057  48.175 -30.505  1.00  0.00     0.067 C 
HETATM   16  C30 UNL     1      -9.189  48.313 -29.457  1.00  0.00     0.047 C 
HETATM   17  O5  UNL     1      -4.929  48.039 -30.588  1.00  0.00    -0.351 OA
ENDROOT
BRANCH   1  18
HETATM   18  C14 UNL     1      -4.283  48.940 -28.472  1.00  0.00     0.011 C 
HETATM   19  C12 UNL     1      -3.857  49.185 -27.214  1.00  0.00    -0.064 C 
HETATM   20  C13 UNL     1      -4.047  48.276 -26.034  1.00  0.00     0.048 C 
BRANCH  19  21
HETATM   21  C11 UNL     1      -3.185  50.468 -26.961  1.00  0.00     0.003 C 
HETATM   22  C10 UNL     1      -2.199  50.702 -26.082  1.00  0.00    -0.018 C 
BRANCH  22  23
HETATM   23  C9  UNL     1      -1.496  52.016 -25.790  1.00  0.00     0.050 C 
HETATM   24  C4  UNL     1      -0.300  52.040 -24.785  1.00  0.00     0.024 C 
HETATM   25  C5  UNL     1       0.694  53.085 -25.353  1.00  0.00     0.013 C 
HETATM   26  C6  UNL     1      -0.039  53.785 -26.486  1.00  0.00     0.039 C 
HETATM   27  C7  UNL     1      -0.948  52.702 -27.070  1.00  0.00     0.062 C 
HETATM   28  C8  UNL     1      -0.187  51.766 -28.016  1.00  0.00     0.046 C 
BRANCH  24  29
HETATM   29  C2  UNL     1      -0.772  52.281 -23.351  1.00  0.00    -0.088 C 
HETATM   30  C1  UNL     1      -2.058  52.261 -22.958  1.00  0.00     0.014 C 
HETATM   31  C3  UNL     1       0.314  52.537 -22.339  1.00  0.00     0.043 C 
ENDBRANCH  24  29
BRANCH  27  32
HETATM   32  O1  UNL     1      -2.011  53.320 -27.798  1.00  0.00    -0.390 OA
HETATM   33  H14 UNL     1      -1.620  53.771 -28.566  1.00  0.00     0.210 HD
ENDBRANCH  27  32
ENDBRANCH  22  23
ENDBRANCH  19  21
ENDBRANCH   1  18
BRANCH  15  34
HETATM   34  O4  UNL     1      -7.381  49.435 -30.521  1.00  0.00    -0.389 OA
HETATM   35  H44 UNL     1      -8.031  50.147 -30.649  1.00  0.00     0.210 HD
ENDBRANCH  15  34
BRANCH  11  36
HETATM   36  C26 UNL     1     -10.301  43.870 -29.929  1.00  0.00     0.265 C 
HETATM   37  O3  UNL     1     -10.748  44.238 -28.851  1.00  0.00    -0.302 OA
ENDBRANCH  11  36
TORSDOF 7
ENDMDL
