MODEL 1
REMARK minimizedAffinity -7.65385437
REMARK CNNscore 0.823845148
REMARK CNNaffinity 7.09643793
REMARK  7 active torsions:
REMARK  status: ('A' for Active; 'I' for Inactive)
REMARK    1  A    between atoms: C2_2  and  C4_4 
REMARK    2  A    between atoms: C7_7  and  C8_8 
REMARK    3  A    between atoms: C8_8  and  O2_10 
REMARK    4  A    between atoms: C15_17  and  O3_18 
REMARK    5  A    between atoms: C21_24  and  O4_25 
REMARK    6  A    between atoms: C22_26  and  C24_28 
REMARK    7  A    between atoms: C24_28  and  O5_29 
ROOT
HETATM    1  C4  UNL     1       3.809  56.248  -6.757  1.00  0.00     0.019 C 
HETATM    2  C5  UNL     1       5.294  56.702  -6.767  1.00  0.00     0.011 C 
HETATM    3  C6  UNL     1       5.880  56.278  -8.124  1.00  0.00     0.021 C 
HETATM    4  C7  UNL     1       4.961  55.145  -8.588  1.00  0.00     0.050 C 
HETATM    5  C9  UNL     1       4.969  54.868 -10.097  1.00  0.00     0.022 C 
HETATM    6  C10 UNL     1       3.843  53.885 -10.476  1.00  0.00     0.011 C 
HETATM    7  C11 UNL     1       2.405  54.314 -10.012  1.00  0.00    -0.032 C 
HETATM    8  C12 UNL     1       2.037  55.552 -10.898  1.00  0.00     0.016 C 
HETATM    9  C13 UNL     1       2.439  54.724  -8.489  1.00  0.00     0.003 C 
HETATM   10  C14 UNL     1       1.066  55.200  -8.019  1.00  0.00     0.038 C 
HETATM   11  C15 UNL     1      -0.064  54.189  -8.272  1.00  0.00     0.124 C 
HETATM   12  C16 UNL     1      -0.124  53.648  -9.736  1.00  0.00     0.032 C 
HETATM   13  C17 UNL     1      -1.364  52.680 -10.099  1.00  0.00    -0.033 C 
HETATM   14  C18 UNL     1      -1.375  51.417  -9.205  1.00  0.00     0.016 C 
HETATM   15  C19 UNL     1      -2.716  53.422  -9.858  1.00  0.00     0.012 C 
HETATM   16  C20 UNL     1      -3.951  52.741 -10.455  1.00  0.00     0.033 C 
HETATM   17  C21 UNL     1      -3.803  52.467 -11.945  1.00  0.00     0.128 C 
HETATM   18  C22 UNL     1      -2.527  51.648 -12.301  1.00  0.00     0.007 C 
HETATM   19  C23 UNL     1      -2.705  50.186 -11.840  1.00  0.00     0.020 C 
HETATM   20  C25 UNL     1      -1.273  52.362 -11.650  1.00  0.00     0.007 C 
HETATM   21  C26 UNL     1       0.083  51.730 -12.013  1.00  0.00     0.007 C 
HETATM   22  C27 UNL     1       1.243  52.666 -11.675  1.00  0.00     0.011 C 
HETATM   23  C28 UNL     1       1.309  53.122 -10.194  1.00  0.00    -0.030 C 
HETATM   24  C29 UNL     1       1.740  51.874  -9.362  1.00  0.00     0.016 C 
HETATM   25  C30 UNL     1       3.581  55.727  -8.197  1.00  0.00     0.017 C 
ENDROOT
BRANCH   4  26
HETATM   26  C8  UNL     1       5.387  53.873  -7.836  1.00  0.00     0.149 C 
HETATM   27  O1  UNL     1       5.723  52.801  -8.310  1.00  0.00    -0.649 OA
BRANCH  26  28
HETATM   28  O2  UNL     1       5.337  54.014  -6.495  1.00  0.00    -0.776 OA
HETATM   29  H11 UNL     1       5.617  53.138  -6.156  1.00  0.00     0.167 HD
ENDBRANCH  26  28
ENDBRANCH   4  26
BRANCH   1  30
HETATM   30  C2  UNL     1       2.921  57.357  -6.214  1.00  0.00    -0.088 C 
HETATM   31  C1  UNL     1       3.272  58.229  -5.253  1.00  0.00     0.014 C 
HETATM   32  C3  UNL     1       1.547  57.425  -6.832  1.00  0.00     0.043 C 
ENDBRANCH   1  30
BRANCH  11  33
HETATM   33  O3  UNL     1      -1.269  54.855  -7.901  1.00  0.00    -0.395 OA
HETATM   34  H23 UNL     1      -1.380  55.620  -8.493  1.00  0.00     0.210 HD
ENDBRANCH  11  33
BRANCH  18  35
HETATM   35  C24 UNL     1      -2.418  51.654 -13.863  1.00  0.00     0.176 C 
BRANCH  35  36
HETATM   36  O5  UNL     1      -3.407  50.855 -14.508  1.00  0.00    -0.400 OA
HETATM   37  H39 UNL     1      -4.246  51.344 -14.482  1.00  0.00     0.209 HD
ENDBRANCH  35  36
ENDBRANCH  18  35
BRANCH  17  38
HETATM   38  O4  UNL     1      -3.781  53.724 -12.632  1.00  0.00    -0.395 OA
HETATM   39  H33 UNL     1      -4.589  54.208 -12.389  1.00  0.00     0.210 HD
ENDBRANCH  17  38
TORSDOF 7
ENDMDL
