MODEL 1
REMARK minimizedAffinity -8.68173599
REMARK CNNscore 0.78958863
REMARK CNNaffinity 7.48369837
REMARK  8 active torsions:
REMARK  status: ('A' for Active; 'I' for Inactive)
REMARK    1  A    between atoms: O1_2  and  C2_3 
REMARK    2  A    between atoms: C5_6  and  N1_7 
REMARK    3  A    between atoms: N1_7  and  C6_8 
REMARK    4  A    between atoms: C16_25  and  O4_26 
REMARK    5  A    between atoms: O4_26  and  C17_27 
REMARK    6  A    between atoms: C17_27  and  C18_28 
REMARK    7  A    between atoms: C18_28  and  C19_29 
REMARK    8  A    between atoms: C19_29  and  N4_30 
ROOT
HETATM    1  C2  UNL     1       6.117  -6.758  29.409  1.00  0.00     0.102 A 
HETATM    2  C3  UNL     1       7.058  -6.076  30.181  1.00  0.00     0.057 A 
HETATM    3  C4  UNL     1       6.793  -4.773  30.676  1.00  0.00     0.038 A 
HETATM    4  C5  UNL     1       7.669  -4.004  31.470  1.00  0.00     0.119 A 
HETATM    5  N2  UNL     1       7.367  -2.762  31.887  1.00  0.00    -0.338 N 
ATOM      6  H2  UNL     1       8.021  -2.207  32.438  1.00  0.00     0.168 HD
HETATM    7  C13 UNL     1       6.168  -2.295  31.541  1.00  0.00     0.182 A 
HETATM    8  N3  UNL     1       5.251  -2.935  30.805  1.00  0.00    -0.351 N 
ATOM      9  H3  UNL     1       4.353  -2.507  30.579  1.00  0.00     0.166 HD
HETATM   10  C14 UNL     1       5.570  -4.160  30.379  1.00  0.00     0.050 A 
HETATM   11  C15 UNL     1       4.644  -4.849  29.605  1.00  0.00     0.070 A 
HETATM   12  C16 UNL     1       4.897  -6.133  29.113  1.00  0.00     0.104 A 
ENDROOT
BRANCH   4  13
HETATM   13  N1  UNL     1       8.941  -4.490  31.842  1.00  0.00    -0.338 N 
HETATM   14  H5  UNL     1       8.933  -5.507  31.860  1.00  0.00     0.167 HD
BRANCH  13  15
HETATM   15  C6  UNL     1       9.739  -3.983  32.899  1.00  0.00     0.092 A 
HETATM   16  C7  UNL     1       9.616  -4.511  34.204  1.00  0.00     0.063 A 
HETATM   17 CL1  UNL     1       8.394  -5.687  34.559  1.00  0.00    -0.082 Cl
HETATM   18  C8  UNL     1      10.443  -4.083  35.261  1.00  0.00     0.029 A 
HETATM   19  C9  UNL     1      11.431  -3.126  35.038  1.00  0.00     0.041 A 
HETATM   20  C10 UNL     1      11.561  -2.631  33.759  1.00  0.00     0.107 A 
HETATM   21  C11 UNL     1      10.752  -3.046  32.720  1.00  0.00     0.133 A 
HETATM   22  O3  UNL     1      12.479  -1.702  33.375  1.00  0.00    -0.323 OA
HETATM   23  O2  UNL     1      11.078  -2.413  31.556  1.00  0.00    -0.321 OA
HETATM   24  C12 UNL     1      12.184  -1.591  31.969  1.00  0.00     0.352 A 
ENDBRANCH  13  15
ENDBRANCH   4  13
BRANCH   1  25
HETATM   25  O1  UNL     1       6.300  -8.014  28.893  1.00  0.00    -0.353 OA
HETATM   26  C1  UNL     1       7.605  -8.573  28.954  1.00  0.00     0.210 C 
ENDBRANCH   1  25
BRANCH  12  27
HETATM   27  O4  UNL     1       4.017  -6.860  28.351  1.00  0.00    -0.348 OA
BRANCH  27  28
HETATM   28  C17 UNL     1       2.624  -6.614  28.521  1.00  0.00     0.177 C 
BRANCH  28  29
HETATM   29  C18 UNL     1       1.833  -7.520  27.576  1.00  0.00     0.057 C 
BRANCH  29  30
HETATM   30  C19 UNL     1       2.754  -8.466  26.791  1.00  0.00     0.274 C 
BRANCH  30  31
HETATM   31  N4  UNL     1       2.144  -8.923  25.531  1.00  0.00     0.088 N 
HETATM   32  C20 UNL     1       3.136  -8.883  24.440  1.00  0.00     0.272 C 
HETATM   33  C21 UNL     1       2.522  -8.817  23.034  1.00  0.00     0.030 C 
HETATM   34  C22 UNL     1       1.164  -9.498  22.986  1.00  0.00     0.003 C 
HETATM   35  C23 UNL     1       0.211  -8.889  24.016  1.00  0.00     0.030 C 
HETATM   36  C24 UNL     1       0.935  -8.184  25.171  1.00  0.00     0.272 C 
ENDBRANCH  30  31
ENDBRANCH  29  30
ENDBRANCH  28  29
ENDBRANCH  27  28
ENDBRANCH  12  27
TORSDOF 8
ENDMDL
