MODEL 1
REMARK minimizedAffinity -8.85790825
REMARK  2 active torsions:
REMARK  status: ('A' for Active; 'I' for Inactive)
REMARK    1  A    between atoms: C1_2  and  C2_3 
REMARK       I    between atoms: C1_2  and  N3_14 
REMARK    2  A    between atoms: C3_7  and  C4_8 
ROOT
HETATM    1  O1  UNL     1      -4.279  52.458 -22.723  1.00  0.00    -0.266 OA
HETATM    2  C1  UNL     1      -4.139  51.269 -22.424  1.00  0.00     0.272 C 
HETATM    3  N3  UNL     1      -4.159  50.276 -23.415  1.00  0.00    -0.338 N 
HETATM    4  C9  UNL     1      -4.509  48.883 -23.139  1.00  0.00     0.127 C 
HETATM    5  C10 UNL     1      -5.458  48.323 -24.188  1.00  0.00     0.024 C 
HETATM    6  C11 UNL     1      -4.798  48.291 -25.557  1.00  0.00     0.037 C 
HETATM    7  C12 UNL     1      -3.945  49.501 -25.810  1.00  0.00    -0.060 C 
HETATM    8  C13 UNL     1      -2.996  49.501 -26.807  1.00  0.00    -0.015 C 
HETATM    9  C14 UNL     1      -2.152  50.762 -27.199  1.00  0.00     0.031 C 
HETATM   10  C15 UNL     1      -2.956  51.891 -26.625  1.00  0.00     0.019 C 
HETATM   11  C16 UNL     1      -2.834  51.503 -25.137  1.00  0.00     0.031 C 
HETATM   12  C17 UNL     1      -1.738  52.368 -24.599  1.00  0.00     0.124 C 
HETATM   13  N4  UNL     1      -0.520  51.984 -25.419  1.00  0.00    -0.407 N 
HETATM   14  C18 UNL     1       0.347  53.119 -25.702  1.00  0.00     0.117 C 
HETATM   15  C19 UNL     1       1.734  52.651 -26.139  1.00  0.00     0.019 C 
HETATM   16  C20 UNL     1       1.705  51.553 -27.201  1.00  0.00     0.004 C 
HETATM   17  C21 UNL     1       0.298  51.283 -27.718  1.00  0.00     0.026 C 
HETATM   18  C22 UNL     1      -0.681  50.974 -26.566  1.00  0.00     0.086 C 
HETATM   19  C23 UNL     1      -4.097  50.729 -24.804  1.00  0.00     0.122 C 
ENDROOT
BRANCH   2  20
HETATM   20  C2  UNL     1      -3.914  50.893 -21.009  1.00  0.00     0.118 A 
HETATM   21  N1  UNL     1      -4.845  50.343 -20.201  1.00  0.00    -0.295 N 
HETATM   22  N2  UNL     1      -4.194  50.110 -19.051  1.00  0.00    -0.299 N 
ATOM     23  H1  UNL     1      -5.823  50.148 -20.417  1.00  0.00     0.187 HD
HETATM   24  C3  UNL     1      -2.884  50.482 -19.071  1.00  0.00     0.061 A 
HETATM   25  H1  UNL     1      -4.710  49.691 -18.285  1.00  0.00     0.187 HD
HETATM   26  C8  UNL     1      -2.664  50.987 -20.329  1.00  0.00     0.068 A 
BRANCH  24  27
HETATM   27  C4  UNL     1      -1.866  50.347 -17.905  1.00  0.00    -0.001 A 
HETATM   28  C5  UNL     1      -2.186  50.605 -16.591  1.00  0.00     0.063 A 
HETATM   29  S1  UNL     1      -0.852  50.362 -15.541  1.00  0.00    -0.113 SA
HETATM   30  C6  UNL     1       0.160  49.917 -16.844  1.00  0.00     0.050 A 
HETATM   31  C7  UNL     1      -0.505  49.946 -18.051  1.00  0.00     0.021 A 
ENDBRANCH  24  27
ENDBRANCH   2  20
TORSDOF 2
ENDMDL
