MODEL 1
REMARK minimizedAffinity -7.95465803
REMARK CNNscore 0.740658998
REMARK CNNaffinity 6.35742378
REMARK  9 active torsions:
REMARK  status: ('A' for Active; 'I' for Inactive)
REMARK    1  A    between atoms: C3_3  and  O1_4 
REMARK    2  A    between atoms: N1_14  and  O2_16 
REMARK    3  A    between atoms: O2_16  and  C13_17 
REMARK    4  A    between atoms: C13_17  and  C14_18 
REMARK       I    between atoms: C14_18  and  N2_20 
REMARK    5  A    between atoms: N2_20  and  C15_21 
REMARK    6  A    between atoms: C15_21  and  C16_22 
REMARK    7  A    between atoms: C15_21  and  C18_26 
REMARK    8  A    between atoms: C16_22  and  C17_23 
REMARK    9  A    between atoms: C17_23  and  O5_25 
ROOT
HETATM    1  C1  UNL     1      -5.358  47.800 -29.982  1.00  0.00     0.015 C 
HETATM    2  C2  UNL     1      -6.052  47.217 -30.770  1.00  0.00    -0.078 C 
HETATM    3  C3  UNL     1      -6.895  46.505 -31.756  1.00  0.00     0.128 C 
HETATM    4  C4  UNL     1      -7.598  47.518 -32.662  1.00  0.00     0.052 C 
HETATM    5  C5  UNL     1      -8.778  47.985 -31.820  1.00  0.00     0.010 C 
HETATM    6  C6  UNL     1      -9.265  46.741 -31.046  1.00  0.00     0.002 C 
HETATM    7  C7  UNL     1      -9.684  47.055 -29.591  1.00  0.00    -0.004 C 
HETATM    8  C8  UNL     1     -10.760  48.160 -29.471  1.00  0.00     0.010 C 
HETATM    9  C9  UNL     1     -12.200  47.662 -29.501  1.00  0.00     0.035 C 
HETATM   10  C10 UNL     1     -12.342  46.585 -28.457  1.00  0.00    -0.069 C 
HETATM   11  C11 UNL     1     -13.049  46.823 -27.339  1.00  0.00     0.030 C 
HETATM   12  C12 UNL     1     -12.977  45.899 -26.171  1.00  0.00     0.032 C 
HETATM   13  N1  UNL     1     -13.704  45.968 -25.099  1.00  0.00    -0.271 N 
ATOM     14  H1  UNL     1     -13.624  45.329 -24.308  1.00  0.00     0.194 HD
HETATM   15  C25 UNL     1     -11.895  44.840 -26.212  1.00  0.00     0.060 C 
HETATM   16  C26 UNL     1     -11.787  44.260 -27.613  1.00  0.00     0.020 C 
HETATM   17  C27 UNL     1     -11.517  45.326 -28.717  1.00  0.00    -0.016 C 
HETATM   18  C28 UNL     1     -11.985  44.670 -30.041  1.00  0.00     0.020 C 
HETATM   19  C29 UNL     1     -10.006  45.773 -28.743  1.00  0.00     0.002 C 
HETATM   20  C30 UNL     1      -9.029  44.610 -29.031  1.00  0.00     0.007 C 
HETATM   21  C31 UNL     1      -7.770  45.052 -29.772  1.00  0.00     0.014 C 
HETATM   22  C32 UNL     1      -8.094  45.702 -31.141  1.00  0.00     0.003 C 
HETATM   23  C33 UNL     1      -8.525  44.568 -32.117  1.00  0.00     0.020 C 
ENDROOT
BRANCH   3  24
HETATM   24  O1  UNL     1      -6.044  45.680 -32.539  1.00  0.00    -0.377 OA
HETATM   25  H2  UNL     1      -5.532  45.136 -31.917  1.00  0.00     0.211 HD
ENDBRANCH   3  24
BRANCH  13  26
HETATM   26  O2  UNL     1     -14.617  47.034 -25.167  1.00  0.00    -0.271 OA
BRANCH  26  27
HETATM   27  C13 UNL     1     -15.154  47.274 -23.875  1.00  0.00     0.303 C 
BRANCH  27  28
HETATM   28  C14 UNL     1     -16.085  46.135 -23.462  1.00  0.00     0.244 C 
HETATM   29  O3  UNL     1     -15.817  44.943 -23.582  1.00  0.00    -0.271 OA
HETATM   30  N2  UNL     1     -17.289  46.579 -22.944  1.00  0.00    -0.354 N 
HETATM   31  H16 UNL     1     -17.464  47.584 -22.924  1.00  0.00     0.162 HD
BRANCH  30  32
HETATM   32  C15 UNL     1     -18.399  45.681 -22.630  1.00  0.00     0.098 C 
BRANCH  32  33
HETATM   33  C16 UNL     1     -19.158  45.284 -23.910  1.00  0.00     0.135 C 
BRANCH  33  34
HETATM   34  C17 UNL     1     -19.125  46.365 -24.957  1.00  0.00     0.141 C 
HETATM   35  O4  UNL     1     -19.239  47.568 -24.789  1.00  0.00    -0.650 OA
BRANCH  34  36
HETATM   36  O5  UNL     1     -18.934  45.865 -26.194  1.00  0.00    -0.776 OA
HETATM   37  H20 UNL     1     -18.892  46.657 -26.769  1.00  0.00     0.167 HD
ENDBRANCH  34  36
ENDBRANCH  33  34
ENDBRANCH  32  33
BRANCH  32  38
HETATM   38  C18 UNL     1     -17.938  44.470 -21.751  1.00  0.00     0.014 C 
HETATM   39  C19 UNL     1     -18.831  43.232 -21.953  1.00  0.00     0.033 C 
HETATM   40  C20 UNL     1     -20.001  43.149 -20.973  1.00  0.00     0.169 C 
HETATM   41  O6  UNL     1     -20.215  44.385 -20.285  1.00  0.00    -0.381 OA
HETATM   42  C21 UNL     1     -19.110  44.809 -19.464  1.00  0.00     0.054 C 
HETATM   43  C22 UNL     1     -19.058  43.972 -18.175  1.00  0.00     0.045 C 
HETATM   44  C23 UNL     1     -19.404  46.262 -19.058  1.00  0.00     0.045 C 
HETATM   45  C24 UNL     1     -17.779  44.724 -20.240  1.00  0.00     0.044 C 
ENDBRANCH  32  38
ENDBRANCH  30  32
ENDBRANCH  27  28
ENDBRANCH  26  27
ENDBRANCH  13  26
TORSDOF 9
ENDMDL
