MODEL 1
REMARK minimizedAffinity -8.02590275
REMARK CNNscore 0.856597424
REMARK CNNaffinity 7.46685362
REMARK  7 active torsions:
REMARK  status: ('A' for Active; 'I' for Inactive)
REMARK    1  A    between atoms: C2_2  and  C30_32 
REMARK    2  A    between atoms: C3_3  and  C4_4 
REMARK    3  A    between atoms: C4_4  and  C5_5 
REMARK    4  A    between atoms: C5_5  and  C6_6 
REMARK    5  A    between atoms: C6_6  and  C8_8 
REMARK    6  A    between atoms: C29_30  and  O2_31 
REMARK    7  A    between atoms: C30_32  and  O3_33 
ROOT
HETATM    1  C8  UNL     1       4.863  55.770  -8.455  1.00  0.00    -0.002 C 
HETATM    2  C9  UNL     1       5.680  54.694  -9.227  1.00  0.00     0.007 C 
HETATM    3  C10 UNL     1       4.682  53.829 -10.020  1.00  0.00     0.015 C 
HETATM    4  C11 UNL     1       3.368  54.624 -10.004  1.00  0.00    -0.010 C 
HETATM    5  C12 UNL     1       3.466  55.704 -11.130  1.00  0.00     0.021 C 
HETATM    6  C13 UNL     1       2.048  53.885 -10.242  1.00  0.00    -0.039 C 
HETATM    7  C14 UNL     1       0.900  54.367  -9.694  1.00  0.00    -0.066 C 
HETATM    8  C15 UNL     1       0.905  55.609  -8.793  1.00  0.00     0.036 C 
HETATM    9  C16 UNL     1       2.269  56.231  -8.429  1.00  0.00     0.015 C 
HETATM   10  C17 UNL     1       3.406  55.208  -8.535  1.00  0.00    -0.029 C 
HETATM   11  C18 UNL     1       3.211  54.122  -7.431  1.00  0.00     0.016 C 
HETATM   12  C19 UNL     1      -0.466  53.645  -9.878  1.00  0.00    -0.015 C 
HETATM   13  C20 UNL     1      -0.663  52.801  -8.597  1.00  0.00     0.020 C 
HETATM   14  C21 UNL     1      -1.635  54.650 -10.019  1.00  0.00     0.021 C 
HETATM   15  C22 UNL     1      -2.974  53.975 -10.276  1.00  0.00     0.080 C 
HETATM   16  C23 UNL     1      -2.937  53.115 -11.513  1.00  0.00     0.135 C 
HETATM   17  O1  UNL     1      -3.898  53.126 -12.287  1.00  0.00    -0.297 OA
HETATM   18  C24 UNL     1      -1.761  52.141 -11.687  1.00  0.00     0.018 C 
HETATM   19  C25 UNL     1      -1.647  51.830 -13.205  1.00  0.00     0.023 C 
HETATM   20  C26 UNL     1      -2.124  50.822 -10.986  1.00  0.00     0.023 C 
HETATM   21  C27 UNL     1      -0.426  52.807 -11.208  1.00  0.00     0.016 C 
HETATM   22  C28 UNL     1       0.779  51.849 -11.174  1.00  0.00     0.043 C 
HETATM   23  C29 UNL     1       2.094  52.633 -11.097  1.00  0.00     0.148 C 
ENDROOT
BRANCH   1  24
HETATM   24  C6  UNL     1       5.491  56.109  -7.073  1.00  0.00    -0.014 C 
HETATM   25  C7  UNL     1       5.075  57.487  -6.549  1.00  0.00     0.010 C 
BRANCH  24  26
HETATM   26  C5  UNL     1       7.040  55.966  -7.031  1.00  0.00     0.008 C 
BRANCH  26  27
HETATM   27  C4  UNL     1       7.795  56.511  -5.809  1.00  0.00     0.028 C 
BRANCH  27  28
HETATM   28  C3  UNL     1       9.112  55.850  -5.523  1.00  0.00    -0.022 C 
HETATM   29  C2  UNL     1      10.252  56.442  -5.113  1.00  0.00    -0.064 C 
HETATM   30  C1  UNL     1      10.406  57.919  -4.870  1.00  0.00     0.045 C 
BRANCH  29  31
HETATM   31  C30 UNL     1      11.491  55.627  -4.854  1.00  0.00     0.197 C 
BRANCH  31  32
HETATM   32  O3  UNL     1      12.625  56.398  -5.221  1.00  0.00    -0.397 OA
HETATM   33  H48 UNL     1      13.408  55.866  -5.004  1.00  0.00     0.209 HD
ENDBRANCH  31  32
ENDBRANCH  29  31
ENDBRANCH  27  28
ENDBRANCH  26  27
ENDBRANCH  24  26
ENDBRANCH   1  24
BRANCH  23  34
HETATM   34  O2  UNL     1       2.448  52.996 -12.431  1.00  0.00    -0.391 OA
HETATM   35  H45 UNL     1       2.009  53.840 -12.622  1.00  0.00     0.210 HD
ENDBRANCH  23  34
TORSDOF 7
ENDMDL
