MODEL 1
REMARK minimizedAffinity -9.18901062
REMARK CNNscore 0.702802241
REMARK CNNaffinity 7.18903112
REMARK  12 active torsions:
REMARK  status: ('A' for Active; 'I' for Inactive)
REMARK    1  A    between atoms: C3_3  and  O1_4 
REMARK    2  A    between atoms: N1_14  and  O2_16 
REMARK    3  A    between atoms: O2_16  and  C13_17 
REMARK    4  A    between atoms: C13_17  and  C14_18 
REMARK       I    between atoms: C14_18  and  N2_20 
REMARK    5  A    between atoms: N2_20  and  C15_21 
REMARK    6  A    between atoms: C15_21  and  C16_22 
REMARK    7  A    between atoms: C15_21  and  C26_36 
REMARK       I    between atoms: C16_22  and  N3_24 
REMARK    8  A    between atoms: N3_24  and  C17_25 
REMARK    9  A    between atoms: C17_25  and  C18_26 
REMARK   10  A    between atoms: C17_25  and  C25_33 
REMARK   11  A    between atoms: C18_26  and  C19_27 
REMARK   12  A    between atoms: C25_33  and  O6_35 
ROOT
HETATM    1  C1  UNL     1       2.521   5.533   6.879  1.00  0.00     0.015 C 
HETATM    2  C2  UNL     1       2.613   6.384   7.721  1.00  0.00    -0.078 C 
HETATM    3  C3  UNL     1       2.740   7.441   8.751  1.00  0.00     0.128 C 
HETATM    4  C4  UNL     1       1.905   8.646   8.342  1.00  0.00     0.052 C 
HETATM    5  C5  UNL     1       0.523   8.428   8.956  1.00  0.00     0.010 C 
HETATM    6  C6  UNL     1       0.640   7.255   9.969  1.00  0.00     0.002 C 
HETATM    7  C7  UNL     1      -0.210   7.389  11.281  1.00  0.00    -0.004 C 
HETATM    8  C8  UNL     1      -0.934   8.743  11.465  1.00  0.00     0.010 C 
HETATM    9  C9  UNL     1      -1.779   8.820  12.737  1.00  0.00     0.035 C 
HETATM   10  C10 UNL     1      -0.934   8.469  13.934  1.00  0.00    -0.069 C 
HETATM   11  C11 UNL     1      -0.737   9.371  14.908  1.00  0.00     0.030 C 
HETATM   12  C12 UNL     1       0.251   9.157  15.993  1.00  0.00     0.032 C 
HETATM   13  N1  UNL     1       0.304  10.051  16.941  1.00  0.00    -0.271 N 
ATOM     14  H1  UNL     1      -0.301  10.872  16.986  1.00  0.00     0.194 HD
HETATM   15  C29 UNL     1       1.200   7.986  15.859  1.00  0.00     0.060 C 
HETATM   16  C30 UNL     1       0.541   6.794  15.178  1.00  0.00     0.020 C 
HETATM   17  C31 UNL     1      -0.272   7.100  13.881  1.00  0.00    -0.016 C 
HETATM   18  C32 UNL     1      -1.365   5.991  13.841  1.00  0.00     0.020 C 
HETATM   19  C33 UNL     1       0.589   7.007  12.561  1.00  0.00     0.002 C 
HETATM   20  C34 UNL     1       1.922   7.784  12.620  1.00  0.00     0.007 C 
HETATM   21  C35 UNL     1       2.663   7.966  11.283  1.00  0.00     0.014 C 
HETATM   22  C36 UNL     1       2.170   7.036  10.152  1.00  0.00     0.003 C 
HETATM   23  C37 UNL     1       2.584   5.582  10.487  1.00  0.00     0.020 C 
ENDROOT
BRANCH   3  24
HETATM   24  O1  UNL     1       4.109   7.809   8.843  1.00  0.00    -0.377 OA
HETATM   25  H2  UNL     1       4.405   8.022   7.941  1.00  0.00     0.211 HD
ENDBRANCH   3  24
BRANCH  13  26
HETATM   26  O2  UNL     1       1.292   9.750  17.890  1.00  0.00    -0.271 OA
BRANCH  26  27
HETATM   27  C13 UNL     1       2.099  10.904  18.098  1.00  0.00     0.303 C 
BRANCH  27  28
HETATM   28  C14 UNL     1       2.750  10.870  19.473  1.00  0.00     0.244 C 
HETATM   29  O3  UNL     1       2.756   9.860  20.175  1.00  0.00    -0.271 OA
HETATM   30  N2  UNL     1       3.384  12.032  19.836  1.00  0.00    -0.346 N 
HETATM   31  H16 UNL     1       3.279  12.857  19.248  1.00  0.00     0.163 HD
BRANCH  30  32
HETATM   32  C15 UNL     1       4.109  12.184  21.095  1.00  0.00     0.180 C 
BRANCH  32  33
HETATM   33  C16 UNL     1       5.592  11.868  20.796  1.00  0.00     0.241 C 
HETATM   34  O4  UNL     1       5.931  11.057  19.933  1.00  0.00    -0.271 OA
HETATM   35  N3  UNL     1       6.504  12.569  21.553  1.00  0.00    -0.345 N 
HETATM   36  H18 UNL     1       6.185  12.960  22.430  1.00  0.00     0.163 HD
BRANCH  35  37
HETATM   37  C17 UNL     1       7.942  12.282  21.472  1.00  0.00     0.186 C 
BRANCH  37  38
HETATM   38  C18 UNL     1       8.678  13.300  20.579  1.00  0.00     0.074 C 
BRANCH  38  39
HETATM   39  C19 UNL     1       9.780  12.702  19.727  1.00  0.00    -0.056 A 
HETATM   40  C20 UNL     1      10.892  13.478  19.366  1.00  0.00     0.007 A 
HETATM   41  C21 UNL     1      11.935  12.915  18.630  1.00  0.00     0.001 A 
HETATM   42  C22 UNL     1      11.879  11.580  18.247  1.00  0.00     0.000 A 
HETATM   43  C23 UNL     1      10.774  10.805  18.588  1.00  0.00     0.001 A 
HETATM   44  C24 UNL     1       9.727  11.364  19.321  1.00  0.00     0.007 A 
ENDBRANCH  38  39
ENDBRANCH  37  38
BRANCH  37  45
HETATM   45  C25 UNL     1       8.619  12.211  22.846  1.00  0.00     0.163 C 
HETATM   46  O5  UNL     1       8.940  13.168  23.532  1.00  0.00    -0.648 OA
BRANCH  45  47
HETATM   47  O6  UNL     1       8.810  10.961  23.315  1.00  0.00    -0.775 OA
HETATM   48  H27 UNL     1       9.236  11.097  24.187  1.00  0.00     0.167 HD
ENDBRANCH  45  47
ENDBRANCH  37  45
ENDBRANCH  35  37
ENDBRANCH  32  33
BRANCH  32  49
HETATM   49  C26 UNL     1       3.467  11.316  22.202  1.00  0.00     0.009 C 
HETATM   50  C27 UNL     1       4.475  10.400  22.904  1.00  0.00     0.012 C 
HETATM   51  C28 UNL     1       2.697  12.139  23.232  1.00  0.00     0.012 C 
ENDBRANCH  32  49
ENDBRANCH  30  32
ENDBRANCH  27  28
ENDBRANCH  26  27
ENDBRANCH  13  26
TORSDOF 12
ENDMDL
