MODEL 1
REMARK minimizedAffinity -7.00627232
REMARK CNNscore 0.623436391
REMARK CNNaffinity 6.77031708
REMARK  8 active torsions:
REMARK  status: ('A' for Active; 'I' for Inactive)
REMARK    1  A    between atoms: N1_2  and  C2_3 
REMARK    2  A    between atoms: C2_3  and  C3_4 
REMARK    3  A    between atoms: C5_6  and  O1_7 
REMARK    4  A    between atoms: C20_22  and  N2_23 
REMARK    5  A    between atoms: C20_22  and  C21_24 
REMARK    6  A    between atoms: C21_24  and  C22_25 
REMARK    7  A    between atoms: C22_25  and  O2_26 
REMARK    8  A    between atoms: C27_31  and  C29_33 
ROOT
HETATM    1  C3  UNL     1      -0.298  52.661 -11.239  1.00  0.00    -0.021 A 
HETATM    2  C4  UNL     1      -1.568  52.822 -11.824  1.00  0.00     0.045 A 
HETATM    3  C5  UNL     1      -2.445  53.777 -11.352  1.00  0.00     0.066 A 
HETATM    4  C6  UNL     1      -2.081  54.603 -10.302  1.00  0.00     0.045 A 
HETATM    5  C7  UNL     1      -0.812  54.494  -9.674  1.00  0.00    -0.037 A 
HETATM    6  C8  UNL     1       0.100  53.498 -10.149  1.00  0.00    -0.042 A 
HETATM    7  C9  UNL     1       1.473  53.282  -9.529  1.00  0.00     0.044 C 
HETATM    8  C10 UNL     1       2.688  54.058 -10.104  1.00  0.00    -0.010 C 
HETATM    9  C11 UNL     1       2.360  55.370 -10.834  1.00  0.00     0.005 C 
HETATM   10  C12 UNL     1       3.447  56.419 -10.691  1.00  0.00     0.001 C 
HETATM   11  C13 UNL     1       3.623  56.729  -9.213  1.00  0.00     0.007 C 
HETATM   12  C14 UNL     1       4.177  55.519  -8.436  1.00  0.00     0.022 C 
HETATM   13  C15 UNL     1       3.854  54.146  -9.078  1.00  0.00     0.012 C 
HETATM   14  C16 UNL     1       4.000  55.630  -6.869  1.00  0.00     0.082 C 
HETATM   15  C17 UNL     1       5.258  55.033  -6.176  1.00  0.00     0.040 C 
HETATM   16  C18 UNL     1       5.204  55.262  -4.664  1.00  0.00     0.013 C 
HETATM   17  C19 UNL     1       3.900  56.042  -4.320  1.00  0.00     0.060 C 
HETATM   18  C20 UNL     1       2.681  55.099  -4.701  1.00  0.00     0.180 C 
HETATM   19  C23 UNL     1       2.724  54.933  -6.264  1.00  0.00     0.139 C 
HETATM   20  C24 UNL     1       1.490  55.336  -6.966  1.00  0.00    -0.096 C 
HETATM   21  C25 UNL     1       0.527  55.474  -7.672  1.00  0.00    -0.101 C 
HETATM   22  C26 UNL     1      -0.591  55.575  -8.610  1.00  0.00     0.133 C 
HETATM   23  C27 UNL     1       3.933  57.378  -5.157  1.00  0.00     0.068 C 
HETATM   24  C28 UNL     1       2.675  58.240  -4.963  1.00  0.00     0.047 C 
HETATM   25  O3  UNL     1       3.985  57.048  -6.557  1.00  0.00    -0.367 OA
ENDROOT
BRANCH  18  26
HETATM   26  N2  UNL     1       2.965  53.775  -4.066  1.00  0.00     0.090 N 
HETATM   27  H27 UNL     1       3.031  53.905  -3.054  1.00  0.00     0.313 HD
HETATM   28  H28 UNL     1       2.134  53.178  -4.151  1.00  0.00     0.313 HD
ENDBRANCH  18  26
BRANCH  18  29
HETATM   29  C21 UNL     1       1.320  55.560  -4.074  1.00  0.00     0.069 C 
BRANCH  29  30
HETATM   30  C22 UNL     1       0.642  56.805  -4.671  1.00  0.00     0.166 C 
BRANCH  30  31
HETATM   31  O2  UNL     1      -0.776  56.692  -4.608  1.00  0.00    -0.401 OA
HETATM   32  H33 UNL     1      -1.140  57.544  -4.908  1.00  0.00     0.209 HD
ENDBRANCH  30  31
ENDBRANCH  29  30
ENDBRANCH  18  29
BRANCH  23  33
HETATM   33  C29 UNL     1       5.210  58.238  -4.868  1.00  0.00     0.020 C 
HETATM   34  C30 UNL     1       6.371  58.053  -5.854  1.00  0.00     0.007 C 
HETATM   35  C31 UNL     1       7.650  58.333  -5.060  1.00  0.00     0.000 C 
HETATM   36  C32 UNL     1       7.199  58.789  -3.678  1.00  0.00     0.000 C 
HETATM   37  C33 UNL     1       5.862  58.089  -3.483  1.00  0.00     0.007 C 
ENDBRANCH  23  33
BRANCH   3  38
HETATM   38  O1  UNL     1      -3.661  53.882 -11.959  1.00  0.00    -0.361 OA
HETATM   39  H8  UNL     1      -4.157  54.605 -11.540  1.00  0.00     0.217 HD
ENDBRANCH   3  38
BRANCH   1  40
HETATM   40  C2  UNL     1       0.593  51.597 -11.865  1.00  0.00     0.308 C 
BRANCH  40  41
HETATM   41  N1  UNL     1       1.405  52.164 -12.939  1.00  0.00     0.083 N 
HETATM   42  C1  UNL     1       1.106  51.536 -14.215  1.00  0.00     0.307 C 
HETATM   43  H4  UNL     1       1.223  53.166 -12.994  1.00  0.00     0.315 HD
ENDBRANCH  40  41
ENDBRANCH   1  40
TORSDOF 8
ENDMDL
