MODEL 1
REMARK minimizedAffinity -7.72947693
REMARK CNNscore 0.876451552
REMARK CNNaffinity 6.26802635
REMARK  8 active torsions:
REMARK  status: ('A' for Active; 'I' for Inactive)
REMARK    1  A    between atoms: C2_2  and  C30_35 
REMARK    2  A    between atoms: C3_3  and  C4_4 
REMARK    3  A    between atoms: C4_4  and  O1_5 
REMARK    4  A    between atoms: C4_4  and  C5_6 
REMARK    5  A    between atoms: C5_6  and  C6_7 
REMARK    6  A    between atoms: C6_7  and  C8_9 
REMARK    7  A    between atoms: C29_33  and  O5_34 
REMARK    8  A    between atoms: C30_35  and  O7_37 
ROOT
HETATM    1  C8  UNL     1       5.695  55.895  -7.635  1.00  0.00     0.006 C 
HETATM    2  C9  UNL     1       6.435  54.734  -8.348  1.00  0.00     0.085 C 
HETATM    3  C10 UNL     1       5.370  54.144  -9.251  1.00  0.00     0.140 C 
HETATM    4  O2  UNL     1       5.586  53.229 -10.039  1.00  0.00    -0.297 OA
HETATM    5  C11 UNL     1       4.033  54.885  -9.111  1.00  0.00     0.051 C 
HETATM    6  C12 UNL     1       4.093  55.941 -10.254  1.00  0.00     0.029 C 
HETATM    7  C13 UNL     1       2.678  54.204  -9.225  1.00  0.00    -0.024 C 
HETATM    8  C14 UNL     1       1.570  54.839  -8.757  1.00  0.00     0.003 C 
HETATM    9  C15 UNL     1       1.760  56.107  -7.931  1.00  0.00     0.157 C 
HETATM   10  O3  UNL     1       0.801  56.822  -7.640  1.00  0.00    -0.293 OA
HETATM   11  C16 UNL     1       3.151  56.524  -7.451  1.00  0.00     0.094 C 
HETATM   12  C17 UNL     1       4.203  55.430  -7.647  1.00  0.00    -0.015 C 
HETATM   13  C18 UNL     1       3.963  54.331  -6.568  1.00  0.00     0.018 C 
HETATM   14  C19 UNL     1       0.128  54.331  -9.002  1.00  0.00    -0.008 C 
HETATM   15  C20 UNL     1      -0.385  53.785  -7.650  1.00  0.00     0.021 C 
HETATM   16  C21 UNL     1      -0.818  55.485  -9.473  1.00  0.00     0.022 C 
HETATM   17  C22 UNL     1      -1.958  55.084 -10.405  1.00  0.00     0.080 C 
HETATM   18  C23 UNL     1      -2.364  53.645 -10.218  1.00  0.00     0.135 C 
HETATM   19  O4  UNL     1      -3.532  53.345  -9.974  1.00  0.00    -0.297 OA
HETATM   20  C24 UNL     1      -1.272  52.596 -10.441  1.00  0.00     0.018 C 
HETATM   21  C25 UNL     1      -1.581  51.338  -9.607  1.00  0.00     0.023 C 
HETATM   22  C26 UNL     1      -1.349  52.191 -11.929  1.00  0.00     0.023 C 
HETATM   23  C27 UNL     1       0.127  53.244 -10.143  1.00  0.00     0.016 C 
HETATM   24  C28 UNL     1       1.235  52.215  -9.916  1.00  0.00     0.043 C 
HETATM   25  C29 UNL     1       2.617  52.867  -9.919  1.00  0.00     0.149 C 
ENDROOT
BRANCH   1  26
HETATM   26  C6  UNL     1       6.425  56.387  -6.343  1.00  0.00    -0.011 C 
HETATM   27  C7  UNL     1       6.196  57.851  -5.951  1.00  0.00     0.010 C 
BRANCH  26  28
HETATM   28  C5  UNL     1       7.933  56.033  -6.383  1.00  0.00     0.040 C 
BRANCH  28  29
HETATM   29  C4  UNL     1       8.568  55.442  -5.109  1.00  0.00     0.142 C 
BRANCH  29  30
HETATM   30  C3  UNL     1      10.021  55.759  -4.912  1.00  0.00     0.018 C 
HETATM   31  C2  UNL     1      10.573  56.990  -4.843  1.00  0.00     0.010 C 
HETATM   32  C1  UNL     1       9.832  58.290  -4.918  1.00  0.00     0.055 C 
BRANCH  31  33
HETATM   33  C30 UNL     1      12.046  57.042  -4.656  1.00  0.00     0.171 C 
HETATM   34  O6  UNL     1      12.669  57.879  -4.026  1.00  0.00    -0.646 OA
BRANCH  33  35
HETATM   35  O7  UNL     1      12.676  56.033  -5.280  1.00  0.00    -0.773 OA
HETATM   36  H42 UNL     1      13.621  56.187  -5.073  1.00  0.00     0.167 HD
ENDBRANCH  33  35
ENDBRANCH  31  33
ENDBRANCH  29  30
BRANCH  29  37
HETATM   37  O1  UNL     1       7.834  55.850  -3.960  1.00  0.00    -0.392 OA
HETATM   38  H6  UNL     1       8.117  56.744  -3.711  1.00  0.00     0.210 HD
ENDBRANCH  29  37
ENDBRANCH  28  29
ENDBRANCH  26  28
ENDBRANCH   1  26
BRANCH  25  39
HETATM   39  O5  UNL     1       3.470  51.956  -9.236  1.00  0.00    -0.391 OA
HETATM   40  H41 UNL     1       4.331  51.975  -9.709  1.00  0.00     0.210 HD
ENDBRANCH  25  39
TORSDOF 8
ENDMDL
