MODEL 1
REMARK minimizedAffinity -9.56304646
REMARK  7 active torsions:
REMARK  status: ('A' for Active; 'I' for Inactive)
REMARK    1  A    between atoms: C4_4  and  C5_5 
REMARK    2  A    between atoms: C5_5  and  C6_6 
REMARK    3  A    between atoms: C6_6  and  C7_7 
REMARK    4  A    between atoms: C7_7  and  C9_9 
REMARK    5  A    between atoms: C22_22  and  O1_23 
REMARK    6  A    between atoms: C23_24  and  O2_25 
REMARK    7  A    between atoms: C24_26  and  O3_27 
ROOT
HETATM    1  C9  UNL     1       1.901   7.071  12.102  1.00  0.00    -0.002 C 
HETATM    2  C10 UNL     1       1.940   5.647  11.478  1.00  0.00     0.007 C 
HETATM    3  C11 UNL     1       0.530   5.040  11.589  1.00  0.00     0.015 C 
HETATM    4  C12 UNL     1      -0.380   6.228  11.931  1.00  0.00    -0.013 C 
HETATM    5  C13 UNL     1      -0.720   6.948  10.589  1.00  0.00     0.021 C 
HETATM    6  C14 UNL     1      -1.729   5.955  12.588  1.00  0.00    -0.068 C 
HETATM    7  C15 UNL     1      -2.296   6.899  13.383  1.00  0.00    -0.065 C 
HETATM    8  C16 UNL     1      -1.565   8.200  13.720  1.00  0.00     0.036 C 
HETATM    9  C17 UNL     1      -0.129   8.383  13.176  1.00  0.00     0.015 C 
HETATM   10  C18 UNL     1       0.559   7.038  12.908  1.00  0.00    -0.029 C 
HETATM   11  C19 UNL     1       0.791   6.311  14.271  1.00  0.00     0.016 C 
HETATM   12  C20 UNL     1      -3.689   6.689  14.033  1.00  0.00     0.012 C 
HETATM   13  C21 UNL     1      -3.406   6.188  15.477  1.00  0.00     0.023 C 
HETATM   14  C22 UNL     1      -4.535   8.001  14.116  1.00  0.00     0.162 C 
HETATM   15  C23 UNL     1      -5.928   7.758  14.716  1.00  0.00     0.177 C 
HETATM   16  C24 UNL     1      -6.709   6.696  13.934  1.00  0.00     0.153 C 
HETATM   17  C25 UNL     1      -5.932   5.373  13.789  1.00  0.00     0.018 C 
HETATM   18  C26 UNL     1      -6.750   4.394  12.930  1.00  0.00     0.013 C 
HETATM   19  C27 UNL     1      -4.516   5.638  13.200  1.00  0.00     0.007 C 
HETATM   20  C28 UNL     1      -3.697   4.358  12.999  1.00  0.00     0.010 C 
HETATM   21  C29 UNL     1      -2.399   4.645  12.247  1.00  0.00     0.036 C 
ENDROOT
BRANCH   1  22
HETATM   22  C7  UNL     1       3.231   7.455  12.823  1.00  0.00    -0.014 C 
HETATM   23  C8  UNL     1       2.985   8.402  14.008  1.00  0.00     0.010 C 
BRANCH  22  24
HETATM   24  C6  UNL     1       4.254   8.163  11.883  1.00  0.00     0.008 C 
BRANCH  24  25
HETATM   25  C5  UNL     1       4.528   7.451  10.553  1.00  0.00     0.028 C 
BRANCH  25  26
HETATM   26  C4  UNL     1       3.710   8.053   9.441  1.00  0.00    -0.025 C 
HETATM   27  C2  UNL     1       3.004   7.416   8.487  1.00  0.00    -0.091 C 
HETATM   28  C1  UNL     1       2.874   5.925   8.342  1.00  0.00     0.042 C 
HETATM   29  C3  UNL     1       2.257   8.201   7.438  1.00  0.00     0.042 C 
ENDBRANCH  25  26
ENDBRANCH  24  25
ENDBRANCH  22  24
ENDBRANCH   1  22
BRANCH  14  30
HETATM   30  O1  UNL     1      -4.706   8.584  12.813  1.00  0.00    -0.392 OA
HETATM   31  H35 UNL     1      -5.462   9.198  12.881  1.00  0.00     0.210 HD
ENDBRANCH  14  30
BRANCH  15  32
HETATM   32  O2  UNL     1      -6.683   8.988  14.671  1.00  0.00    -0.390 OA
HETATM   33  H37 UNL     1      -6.283   9.588  15.328  1.00  0.00     0.210 HD
ENDBRANCH  15  32
BRANCH  16  34
HETATM   34  O3  UNL     1      -7.944   6.461  14.626  1.00  0.00    -0.393 OA
HETATM   35  H39 UNL     1      -8.357   7.341  14.710  1.00  0.00     0.210 HD
ENDBRANCH  16  34
TORSDOF 7
ENDMDL
