MODEL 1
REMARK minimizedAffinity -11.0728321
REMARK  0 active torsions:
REMARK  status: ('A' for Active; 'I' for Inactive)
ROOT
HETATM    1  C1  UNL     1      -7.424  45.983 -20.677  1.00  0.00     0.023 C 
HETATM    2  C2  UNL     1      -7.787  47.381 -21.227  1.00  0.00     0.017 C 
HETATM    3  C3  UNL     1      -9.009  47.151 -22.155  1.00  0.00     0.023 C 
HETATM    4  C4  UNL     1      -8.195  48.277 -20.050  1.00  0.00     0.135 C 
HETATM    5  O1  UNL     1      -9.375  48.465 -19.748  1.00  0.00    -0.297 OA
HETATM    6  C5  UNL     1      -7.090  48.848 -19.186  1.00  0.00     0.080 C 
HETATM    7  C6  UNL     1      -5.975  49.490 -20.008  1.00  0.00     0.017 C 
HETATM    8  C7  UNL     1      -5.385  48.585 -21.137  1.00  0.00    -0.035 C 
HETATM    9  C8  UNL     1      -4.650  47.408 -20.448  1.00  0.00     0.016 C 
HETATM   10  C9  UNL     1      -6.599  48.087 -22.007  1.00  0.00     0.009 C 
HETATM   11  C10 UNL     1      -7.174  49.220 -22.906  1.00  0.00     0.007 C 
HETATM   12  C11 UNL     1      -6.247  50.370 -23.278  1.00  0.00     0.011 C 
HETATM   13  C12 UNL     1      -4.760  49.993 -23.377  1.00  0.00    -0.032 C 
HETATM   14  C13 UNL     1      -4.638  48.877 -24.461  1.00  0.00     0.016 C 
HETATM   15  C14 UNL     1      -4.311  49.460 -21.974  1.00  0.00     0.003 C 
HETATM   16  C15 UNL     1      -2.880  48.867 -22.095  1.00  0.00     0.006 C 
HETATM   17  C16 UNL     1      -1.921  49.673 -22.986  1.00  0.00     0.006 C 
HETATM   18  C17 UNL     1      -2.365  51.126 -23.166  1.00  0.00    -0.000 C 
HETATM   19  C18 UNL     1      -1.345  52.061 -23.849  1.00  0.00     0.009 C 
HETATM   20  C19 UNL     1       0.150  51.947 -23.526  1.00  0.00     0.067 C 
HETATM   21  C20 UNL     1       0.807  52.832 -24.618  1.00  0.00     0.140 C 
HETATM   22  C21 UNL     1      -0.282  53.131 -25.666  1.00  0.00     0.042 C 
HETATM   23  C22 UNL     1      -1.379  52.088 -25.386  1.00  0.00    -0.037 C 
HETATM   24  C23 UNL     1      -0.979  50.773 -26.091  1.00  0.00     0.015 C 
HETATM   25  C24 UNL     1      -2.778  52.527 -25.826  1.00  0.00     0.010 C 
HETATM   26  C25 UNL     1      -3.849  51.555 -25.309  1.00  0.00     0.011 C 
HETATM   27  C26 UNL     1      -3.835  51.284 -23.762  1.00  0.00    -0.032 C 
HETATM   28  C27 UNL     1      -4.410  52.587 -23.107  1.00  0.00     0.016 C 
HETATM   29  O2  UNL     1       1.234  54.065 -24.008  1.00  0.00    -0.313 OA
HETATM   30  C28 UNL     1       1.135  53.974 -22.649  1.00  0.00     0.297 C 
HETATM   31  O3  UNL     1       1.412  54.856 -21.853  1.00  0.00    -0.262 OA
HETATM   32  C29 UNL     1       0.590  52.653 -22.297  1.00  0.00     0.175 A 
HETATM   33  C30 UNL     1       0.208  52.259 -20.894  1.00  0.00     0.218 A 
HETATM   34  O4  UNL     1       1.455  51.851 -21.467  1.00  0.00    -0.364 OA
ENDROOT
TORSDOF 0
ENDMDL
