MODEL 1
REMARK minimizedAffinity -10.4038706
REMARK CNNscore 0.730590224
REMARK CNNaffinity 7.80462837
REMARK  11 active torsions:
REMARK  status: ('A' for Active; 'I' for Inactive)
REMARK    1  A    between atoms: C2_2  and  C4_4 
REMARK    2  A    between atoms: C5_5  and  C6_6 
REMARK    3  A    between atoms: C6_6  and  C7_7 
REMARK    4  A    between atoms: C7_7  and  C9_9 
REMARK    5  A    between atoms: C27_28  and  O2_29 
REMARK    6  A    between atoms: O2_29  and  C28_30 
REMARK    7  A    between atoms: C29_32  and  C30_33 
REMARK    8  A    between atoms: C30_33  and  O4_34 
REMARK    9  A    between atoms: C31_35  and  O5_36 
REMARK   10  A    between atoms: C32_37  and  O6_38 
REMARK   11  A    between atoms: C33_39  and  O7_40 
ROOT
HETATM    1  C9  UNL     1      -0.464  51.118 -20.678  1.00  0.00    -0.002 C 
HETATM    2  C10 UNL     1      -1.196  51.967 -19.590  1.00  0.00     0.006 C 
HETATM    3  C11 UNL     1      -2.557  51.292 -19.310  1.00  0.00     0.011 C 
HETATM    4  C12 UNL     1      -2.434  49.901 -19.947  1.00  0.00    -0.029 C 
HETATM    5  C13 UNL     1      -1.598  49.042 -18.911  1.00  0.00     0.016 C 
HETATM    6  C14 UNL     1      -3.743  49.071 -20.183  1.00  0.00     0.028 C 
HETATM    7  C15 UNL     1      -5.095  49.641 -19.819  1.00  0.00    -0.021 C 
HETATM    8  C16 UNL     1      -6.211  49.017 -20.248  1.00  0.00     0.008 C 
HETATM    9  C17 UNL     1      -6.137  47.859 -21.247  1.00  0.00     0.092 C 
HETATM   10  O1  UNL     1      -5.517  46.749 -20.549  1.00  0.00    -0.374 OA
HETATM   11  C18 UNL     1      -4.120  46.711 -20.935  1.00  0.00     0.179 C 
HETATM   12  C19 UNL     1      -3.776  48.137 -21.463  1.00  0.00    -0.004 C 
HETATM   13  C20 UNL     1      -2.508  48.104 -22.355  1.00  0.00     0.014 C 
HETATM   14  C21 UNL     1      -1.266  48.904 -21.913  1.00  0.00     0.011 C 
HETATM   15  C22 UNL     1      -1.630  50.240 -21.254  1.00  0.00    -0.032 C 
HETATM   16  C23 UNL     1      -2.391  51.107 -22.285  1.00  0.00     0.016 C 
HETATM   17  C24 UNL     1      -5.092  48.266 -22.298  1.00  0.00     0.036 C 
HETATM   18  C25 UNL     1      -5.508  49.558 -23.017  1.00  0.00     0.011 C 
HETATM   19  C26 UNL     1      -7.022  49.611 -23.279  1.00  0.00     0.033 C 
HETATM   20  C27 UNL     1      -7.672  48.223 -23.295  1.00  0.00     0.136 C 
HETATM   21  C34 UNL     1      -7.480  47.429 -21.948  1.00  0.00     0.014 C 
HETATM   22  C35 UNL     1      -8.699  47.590 -21.009  1.00  0.00     0.021 C 
HETATM   23  C36 UNL     1      -7.439  45.918 -22.313  1.00  0.00     0.021 C 
ENDROOT
BRANCH  20  24
HETATM   24  O2  UNL     1      -9.064  48.390 -23.579  1.00  0.00    -0.352 OA
BRANCH  24  25
HETATM   25  C28 UNL     1      -9.438  47.951 -24.891  1.00  0.00     0.292 C 
HETATM   26  O3  UNL     1      -8.881  46.660 -25.143  1.00  0.00    -0.348 OA
HETATM   27  C29 UNL     1      -9.383  46.075 -26.365  1.00  0.00     0.179 C 
HETATM   28  C31 UNL     1      -9.477  47.104 -27.514  1.00  0.00     0.180 C 
HETATM   29  C32 UNL     1      -8.548  48.296 -27.246  1.00  0.00     0.183 C 
HETATM   30  C33 UNL     1      -8.895  48.976 -25.912  1.00  0.00     0.204 C 
BRANCH  27  31
HETATM   31  C30 UNL     1      -8.445  44.912 -26.727  1.00  0.00     0.198 C 
BRANCH  31  32
HETATM   32  O4  UNL     1      -8.122  44.138 -25.571  1.00  0.00    -0.398 OA
HETATM   33  H44 UNL     1      -7.813  43.267 -25.890  1.00  0.00     0.209 HD
ENDBRANCH  31  32
ENDBRANCH  27  31
BRANCH  28  34
HETATM   34  O5  UNL     1     -10.839  47.571 -27.593  1.00  0.00    -0.390 OA
HETATM   35  H46 UNL     1     -10.801  48.502 -27.895  1.00  0.00     0.210 HD
ENDBRANCH  28  34
BRANCH  29  36
HETATM   36  O6  UNL     1      -8.673  49.271 -28.303  1.00  0.00    -0.390 OA
HETATM   37  H48 UNL     1      -8.177  48.915 -29.065  1.00  0.00     0.210 HD
ENDBRANCH  29  36
BRANCH  30  38
HETATM   38  O7  UNL     1      -9.867  50.017 -26.141  1.00  0.00    -0.388 OA
HETATM   39  H50 UNL     1      -9.553  50.485 -26.942  1.00  0.00     0.210 HD
ENDBRANCH  30  38
ENDBRANCH  24  25
ENDBRANCH  20  24
BRANCH   1  40
HETATM   40  C7  UNL     1       0.392  52.011 -21.627  1.00  0.00    -0.010 C 
HETATM   41  C8  UNL     1       0.754  53.359 -20.992  1.00  0.00     0.010 C 
BRANCH  40  42
HETATM   42  C6  UNL     1      -0.278  52.256 -23.007  1.00  0.00     0.031 C 
BRANCH  42  43
HETATM   43  C5  UNL     1       0.649  52.155 -24.191  1.00  0.00    -0.026 C 
HETATM   44  C4  UNL     1       0.262  51.718 -25.399  1.00  0.00     0.002 C 
BRANCH  44  45
HETATM   45  C2  UNL     1       1.108  51.608 -26.582  1.00  0.00    -0.072 C 
HETATM   46  C1  UNL     1       2.429  51.415 -26.442  1.00  0.00     0.018 C 
HETATM   47  C3  UNL     1       0.485  51.713 -27.948  1.00  0.00     0.047 C 
ENDBRANCH  44  45
ENDBRANCH  42  43
ENDBRANCH  40  42
ENDBRANCH   1  40
TORSDOF 11
ENDMDL
