MODEL 1
REMARK minimizedAffinity -8.1479311
REMARK CNNscore 0.764306903
REMARK CNNaffinity 7.62833166
REMARK  7 active torsions:
REMARK  status: ('A' for Active; 'I' for Inactive)
REMARK    1  A    between atoms: C2_2  and  C3_3 
REMARK    2  A    between atoms: C4_4  and  C5_5 
REMARK    3  A    between atoms: C5_5  and  O2_7 
REMARK    4  A    between atoms: O2_7  and  C6_8 
REMARK    5  A    between atoms: C6_8  and  C8_10 
REMARK    6  A    between atoms: C18_22  and  O4_23 
REMARK    7  A    between atoms: C20_26  and  O6_27 
ROOT
HETATM    1  C8  UNL     1       0.297  52.625 -11.263  1.00  0.00     0.028 C 
HETATM    2  C9  UNL     1      -0.865  52.756 -10.291  1.00  0.00     0.011 C 
HETATM    3  C10 UNL     1      -0.228  53.506  -9.124  1.00  0.00     0.044 C 
HETATM    4  C11 UNL     1       1.292  53.092  -9.076  1.00  0.00     0.097 C 
HETATM    5  O3  UNL     1       1.570  52.530  -7.788  1.00  0.00    -0.373 OA
HETATM    6  C12 UNL     1       0.894  51.356  -7.381  1.00  0.00     0.199 C 
HETATM    7  C13 UNL     1       1.726  50.115  -7.701  1.00  0.00     0.298 C 
HETATM    8  N1  UNL     1       2.293  50.099  -9.060  1.00  0.00     0.087 N 
HETATM    9  C14 UNL     1       2.781  48.757  -9.387  1.00  0.00     0.310 C 
HETATM   10  C15 UNL     1       1.361  50.610 -10.066  1.00  0.00     0.285 C 
HETATM   11  C16 UNL     1       1.480  52.144 -10.343  1.00  0.00     0.030 C 
HETATM   12  C17 UNL     1       2.803  52.416 -11.121  1.00  0.00     0.050 C 
HETATM   13  C18 UNL     1       4.021  52.734 -10.259  1.00  0.00     0.159 C 
HETATM   14  C19 UNL     1       3.784  53.948  -9.297  1.00  0.00     0.124 C 
HETATM   15  O5  UNL     1       4.233  53.555  -7.969  1.00  0.00    -0.336 OA
HETATM   16  C20 UNL     1       5.251  54.387  -7.437  1.00  0.00     0.163 C 
HETATM   17  C21 UNL     1       6.483  54.306  -8.329  1.00  0.00     0.069 C 
HETATM   18  C22 UNL     1       6.150  54.903  -9.690  1.00  0.00     0.018 C 
HETATM   19  C23 UNL     1       4.628  55.208  -9.782  1.00  0.00    -0.002 C 
HETATM   20  C24 UNL     1       4.308  55.670 -11.217  1.00  0.00     0.019 C 
HETATM   21  C25 UNL     1       4.336  56.331  -8.745  1.00  0.00     0.005 C 
HETATM   22  C26 UNL     1       2.862  56.744  -8.790  1.00  0.00     0.033 C 
HETATM   23  C27 UNL     1       1.921  55.576  -8.875  1.00  0.00    -0.017 C 
HETATM   24  C28 UNL     1       2.281  54.292  -9.108  1.00  0.00    -0.011 C 
HETATM   25  C29 UNL     1       4.740  55.825  -7.341  1.00  0.00     0.074 C 
ENDROOT
BRANCH   1  26
HETATM   26  C6  UNL     1      -0.013  51.875 -12.582  1.00  0.00     0.133 C 
HETATM   27  C7  UNL     1      -1.394  52.111 -13.187  1.00  0.00     0.040 C 
BRANCH  26  28
HETATM   28  O2  UNL     1       0.894  52.353 -13.613  1.00  0.00    -0.312 OA
BRANCH  28  29
HETATM   29  C5  UNL     1       1.443  51.428 -14.451  1.00  0.00     0.296 C 
HETATM   30  O1  UNL     1       2.047  50.433 -14.071  1.00  0.00    -0.259 OA
BRANCH  29  31
HETATM   31  C4  UNL     1       1.300  51.811 -15.859  1.00  0.00     0.069 A 
HETATM   32  C3  UNL     1       2.219  52.569 -16.581  1.00  0.00     0.025 A 
HETATM   33  N2  UNL     1       1.723  52.741 -17.848  1.00  0.00    -0.368 N 
HETATM   34  C32 UNL     1       0.511  52.121 -17.963  1.00  0.00     0.096 A 
HETATM   35  H46 UNL     1       2.182  53.263 -18.587  1.00  0.00     0.165 HD
HETATM   36  C30 UNL     1       0.210  51.522 -16.755  1.00  0.00    -0.028 A 
HETATM   37  C31 UNL     1      -1.015  50.726 -16.462  1.00  0.00     0.050 C 
BRANCH  32  38
HETATM   38  C2  UNL     1       3.529  53.173 -16.180  1.00  0.00     0.054 C 
HETATM   39  C1  UNL     1       4.663  52.156 -16.212  1.00  0.00     0.011 C 
ENDBRANCH  32  38
ENDBRANCH  29  31
ENDBRANCH  28  29
ENDBRANCH  26  28
ENDBRANCH   1  26
BRANCH  13  40
HETATM   40  O4  UNL     1       4.487  51.561  -9.597  1.00  0.00    -0.392 OA
HETATM   41  H27 UNL     1       3.764  51.283  -8.990  1.00  0.00     0.210 HD
ENDBRANCH  13  40
BRANCH  16  42
HETATM   42  O6  UNL     1       5.563  53.900  -6.150  1.00  0.00    -0.365 OA
HETATM   43  H28 UNL     1       5.201  52.994  -6.194  1.00  0.00     0.213 HD
ENDBRANCH  16  42
TORSDOF 7
ENDMDL
