MODEL 1
REMARK minimizedAffinity -7.13666534
REMARK CNNscore 0.6933074
REMARK CNNaffinity 6.71401405
REMARK  6 active torsions:
REMARK  status: ('A' for Active; 'I' for Inactive)
REMARK    1  A    between atoms: O1_2  and  C2_3 
REMARK    2  A    between atoms: C17_20  and  C18_21 
REMARK    3  A    between atoms: C22_27  and  O6_28 
REMARK    4  A    between atoms: O6_28  and  C23_29 
REMARK    5  A    between atoms: C26_33  and  O8_34 
REMARK    6  A    between atoms: C31_40  and  O10_41 
ROOT
HETATM    1  C2  UNL     1       7.402  55.903  -3.406  1.00  0.00     0.190 C 
HETATM    2  C3  UNL     1       8.183  57.099  -2.842  1.00  0.00     0.064 C 
HETATM    3  C4  UNL     1       7.434  58.411  -3.058  1.00  0.00     0.174 C 
HETATM    4  O2  UNL     1       7.084  58.607  -4.432  1.00  0.00    -0.356 OA
HETATM    5  C5  UNL     1       6.229  57.557  -4.895  1.00  0.00     0.325 C 
HETATM    6  O3  UNL     1       5.799  57.857  -6.241  1.00  0.00    -0.344 OA
HETATM    7  C6  UNL     1       4.953  56.786  -6.683  1.00  0.00     0.177 C 
HETATM    8  C7  UNL     1       4.351  57.111  -8.009  1.00  0.00     0.011 C 
HETATM    9  C8  UNL     1       4.129  56.192  -8.973  1.00  0.00    -0.072 C 
HETATM   10  C9  UNL     1       3.493  56.616 -10.273  1.00  0.00     0.035 C 
HETATM   11  C10 UNL     1       2.418  55.650 -10.771  1.00  0.00     0.012 C 
HETATM   12  C11 UNL     1       2.000  54.611  -9.718  1.00  0.00     0.026 C 
HETATM   13  C12 UNL     1       3.257  53.778  -9.299  1.00  0.00     0.005 C 
HETATM   14  C13 UNL     1       2.896  52.588  -8.367  1.00  0.00     0.007 C 
HETATM   15  C14 UNL     1       1.705  51.739  -8.850  1.00  0.00     0.013 C 
HETATM   16  C15 UNL     1       0.481  52.622  -9.159  1.00  0.00    -0.003 C 
HETATM   17  C16 UNL     1      -0.045  53.247  -7.834  1.00  0.00     0.019 C 
HETATM   18  C17 UNL     1      -0.676  51.908  -9.915  1.00  0.00     0.058 C 
HETATM   19  C22 UNL     1      -1.450  53.105 -10.558  1.00  0.00     0.143 C 
HETATM   20  C25 UNL     1      -0.441  54.281 -10.658  1.00  0.00     0.072 C 
HETATM   21  C26 UNL     1       0.892  53.669 -10.231  1.00  0.00     0.072 C 
HETATM   22  C27 UNL     1       4.461  54.695  -8.806  1.00  0.00    -0.014 C 
HETATM   23  C28 UNL     1       5.678  54.388  -9.722  1.00  0.00     0.020 C 
HETATM   24  C29 UNL     1       4.893  54.387  -7.335  1.00  0.00     0.049 C 
HETATM   25  C30 UNL     1       5.774  55.488  -6.750  1.00  0.00     0.159 C 
HETATM   26  O9  UNL     1       6.226  55.128  -5.433  1.00  0.00    -0.341 OA
HETATM   27  C31 UNL     1       7.012  56.198  -4.876  1.00  0.00     0.240 C 
ENDROOT
BRANCH  18  28
HETATM   28  C18 UNL     1      -1.502  50.937  -9.114  1.00  0.00    -0.043 A 
HETATM   29  C19 UNL     1      -2.550  50.245  -9.565  1.00  0.00     0.087 A 
HETATM   30  C20 UNL     1      -3.038  49.428  -8.455  1.00  0.00     0.283 A 
HETATM   31  O4  UNL     1      -3.966  48.647  -8.530  1.00  0.00    -0.260 OA
HETATM   32  O5  UNL     1      -2.283  49.676  -7.350  1.00  0.00    -0.314 OA
HETATM   33  C21 UNL     1      -1.283  50.641  -7.677  1.00  0.00     0.214 A 
ENDBRANCH  18  28
BRANCH  19  34
HETATM   34  O6  UNL     1      -1.910  52.722 -11.865  1.00  0.00    -0.316 OA
BRANCH  34  35
HETATM   35  C23 UNL     1      -3.226  52.948 -12.110  1.00  0.00     0.255 C 
HETATM   36  C24 UNL     1      -3.893  53.487 -10.880  1.00  0.00     0.126 C 
HETATM   37  O7  UNL     1      -3.801  52.731 -13.169  1.00  0.00    -0.266 OA
ENDBRANCH  34  35
ENDBRANCH  19  34
BRANCH  21  38
HETATM   38  O8  UNL     1       1.407  52.966 -11.382  1.00  0.00    -0.389 OA
HETATM   39  H35 UNL     1       1.440  53.580 -12.136  1.00  0.00     0.210 HD
ENDBRANCH  21  38
BRANCH  27  40
HETATM   40  O10 UNL     1       8.228  56.314  -5.636  1.00  0.00    -0.360 OA
HETATM   41  H42 UNL     1       8.135  57.145  -6.142  1.00  0.00     0.213 HD
ENDBRANCH  27  40
BRANCH   1  42
HETATM   42  O1  UNL     1       6.253  55.724  -2.557  1.00  0.00    -0.385 OA
HETATM   43  C1  UNL     1       5.735  54.398  -2.606  1.00  0.00     0.202 C 
ENDBRANCH   1  42
TORSDOF 6
ENDMDL
