MODEL 1
REMARK minimizedAffinity -9.42946339
REMARK CNNscore 0.805633485
REMARK CNNaffinity 7.89314508
REMARK  10 active torsions:
REMARK  status: ('A' for Active; 'I' for Inactive)
REMARK    1  A    between atoms: C2_2  and  O1_3 
REMARK    2  A    between atoms: O1_3  and  C3_4 
REMARK    3  A    between atoms: C3_4  and  C4_6 
REMARK    4  A    between atoms: C5_7  and  C6_8 
REMARK    5  A    between atoms: C12_16  and  C13_17 
REMARK    6  A    between atoms: C23_28  and  O5_29 
REMARK    7  A    between atoms: C27_34  and  C28_35 
REMARK    8  A    between atoms: C28_35  and  O7_36 
REMARK    9  A    between atoms: C38_47  and  C39_48 
REMARK   10  A    between atoms: C39_48  and  O8_49 
ROOT
HETATM    1  C4  UNL     1      -1.705  50.249 -25.175  1.00  0.00     0.165 C 
HETATM    2  C5  UNL     1      -1.958  50.270 -23.851  1.00  0.00     0.053 C 
HETATM    3  C7  UNL     1      -2.858  49.245 -23.320  1.00  0.00    -0.002 C 
HETATM    4  C8  UNL     1      -2.618  48.575 -22.161  1.00  0.00    -0.066 C 
HETATM    5  C9  UNL     1      -1.529  48.893 -21.159  1.00  0.00     0.042 C 
HETATM    6  C10 UNL     1      -2.165  49.472 -19.903  1.00  0.00     0.083 C 
HETATM    7  C11 UNL     1      -3.496  48.834 -19.541  1.00  0.00     0.136 C 
HETATM    8  O4  UNL     1      -4.190  49.345 -18.655  1.00  0.00    -0.297 OA
HETATM    9  C12 UNL     1      -3.936  47.536 -20.234  1.00  0.00     0.092 C 
HETATM   10  C21 UNL     1      -3.354  47.346 -21.652  1.00  0.00     0.052 C 
HETATM   11  C22 UNL     1      -3.933  48.858 -24.282  1.00  0.00     0.044 C 
HETATM   12  C23 UNL     1      -5.277  48.620 -23.975  1.00  0.00     0.091 C 
HETATM   13  C25 UNL     1      -6.122  48.172 -24.979  1.00  0.00     0.013 C 
HETATM   14  C26 UNL     1      -5.680  48.059 -26.291  1.00  0.00     0.089 C 
HETATM   15  O6  UNL     1      -6.665  47.639 -27.152  1.00  0.00    -0.341 OA
HETATM   16  C27 UNL     1      -7.667  47.085 -26.273  1.00  0.00     0.168 C 
HETATM   17  C37 UNL     1      -7.556  47.806 -24.915  1.00  0.00     0.080 C 
HETATM   18  C38 UNL     1      -4.391  48.386 -26.672  1.00  0.00     0.034 C 
HETATM   19  C40 UNL     1      -3.536  48.821 -25.645  1.00  0.00     0.101 C 
HETATM   20  O9  UNL     1      -2.286  49.295 -26.019  1.00  0.00    -0.302 OA
ENDROOT
BRANCH   2  21
HETATM   21  C6  UNL     1      -1.501  51.427 -23.050  1.00  0.00     0.273 C 
HETATM   22  O3  UNL     1      -0.345  51.537 -22.655  1.00  0.00    -0.301 OA
ENDBRANCH   2  21
BRANCH   1  23
HETATM   23  C3  UNL     1      -0.840  51.279 -25.814  1.00  0.00     0.318 C 
HETATM   24  O2  UNL     1      -1.161  52.442 -26.009  1.00  0.00    -0.257 OA
BRANCH  23  25
HETATM   25  O1  UNL     1       0.339  50.708 -26.163  1.00  0.00    -0.316 OA
BRANCH  25  26
HETATM   26  C2  UNL     1       1.126  51.459 -27.095  1.00  0.00     0.175 C 
HETATM   27  C1  UNL     1       2.548  51.512 -26.572  1.00  0.00     0.034 C 
ENDBRANCH  25  26
ENDBRANCH  23  25
ENDBRANCH   1  23
BRANCH  12  28
HETATM   28  O5  UNL     1      -5.789  48.785 -22.718  1.00  0.00    -0.354 OA
HETATM   29  C24 UNL     1      -6.182  50.147 -22.515  1.00  0.00     0.210 C 
ENDBRANCH  12  28
BRANCH   9  30
HETATM   30  C13 UNL     1      -3.706  46.308 -19.358  1.00  0.00    -0.046 A 
HETATM   31  C14 UNL     1      -3.984  45.015 -19.828  1.00  0.00     0.010 A 
HETATM   32  C15 UNL     1      -3.802  43.879 -19.027  1.00  0.00     0.031 A 
HETATM   33  C16 UNL     1      -3.332  44.072 -17.726  1.00  0.00     0.042 A 
HETATM   34  N1  UNL     1      -3.047  43.158 -16.736  1.00  0.00    -0.365 N 
HETATM   35  C19 UNL     1      -3.047  45.338 -17.213  1.00  0.00    -0.008 A 
HETATM   36  C17 UNL     1      -2.591  43.803 -15.616  1.00  0.00     0.089 A 
HETATM   37  H14 UNL     1      -3.145  42.155 -16.833  1.00  0.00     0.165 HD
HETATM   38  C18 UNL     1      -2.599  45.152 -15.872  1.00  0.00     0.030 A 
HETATM   39  C20 UNL     1      -3.234  46.468 -18.040  1.00  0.00     0.021 A 
ENDBRANCH   9  30
BRANCH  18  40
HETATM   40  C39 UNL     1      -3.939  48.287 -28.097  1.00  0.00     0.208 C 
BRANCH  40  41
HETATM   41  O8  UNL     1      -4.710  49.181 -28.895  1.00  0.00    -0.396 OA
HETATM   42  H42 UNL     1      -4.365  49.110 -29.798  1.00  0.00     0.209 HD
ENDBRANCH  40  41
ENDBRANCH  18  40
BRANCH  16  43
HETATM   43  C28 UNL     1      -9.094  47.072 -26.893  1.00  0.00     0.092 C 
HETATM   44  C29 UNL     1      -9.165  47.763 -28.290  1.00  0.00     0.067 C 
HETATM   45  C30 UNL     1      -9.019  46.873 -29.492  1.00  0.00    -0.027 C 
HETATM   46  C31 UNL     1      -8.987  45.533 -29.431  1.00  0.00    -0.024 C 
HETATM   47  C32 UNL     1      -9.104  44.783 -28.135  1.00  0.00     0.043 C 
HETATM   48  C33 UNL     1      -9.933  43.493 -28.294  1.00  0.00     0.278 C 
HETATM   49  C36 UNL     1      -9.727  45.647 -27.010  1.00  0.00     0.034 C 
HETATM   50  N2  UNL     1      -9.939  42.712 -27.051  1.00  0.00     0.084 N 
HETATM   51  C34 UNL     1     -10.478  43.481 -25.927  1.00  0.00     0.270 C 
HETATM   52  H32 UNL     1     -10.508  41.877 -27.188  1.00  0.00     0.315 HD
HETATM   53  C35 UNL     1      -9.731  44.806 -25.718  1.00  0.00     0.038 C 
BRANCH  43  54
HETATM   54  O7  UNL     1      -9.941  47.853 -26.016  1.00  0.00    -0.386 OA
HETATM   55  H24 UNL     1      -9.989  47.407 -25.156  1.00  0.00     0.210 HD
ENDBRANCH  43  54
ENDBRANCH  16  43
TORSDOF 10
ENDMDL
