MODEL 1
REMARK minimizedAffinity -7.67006826
REMARK CNNscore 0.566932857
REMARK CNNaffinity 6.71232653
REMARK  13 active torsions:
REMARK  status: ('A' for Active; 'I' for Inactive)
REMARK    1  A    between atoms: C4_4  and  C5_5 
REMARK    2  A    between atoms: C5_5  and  C6_6 
REMARK    3  A    between atoms: C6_6  and  C7_7 
REMARK    4  A    between atoms: C9_9  and  C10_10 
REMARK    5  A    between atoms: C11_11  and  C12_12 
REMARK    6  A    between atoms: C14_14  and  C15_15 
REMARK    7  A    between atoms: C18_18  and  O1_19 
REMARK    8  A    between atoms: C19_21  and  C20_22 
REMARK    9  A    between atoms: C20_22  and  C21_23 
REMARK   10  A    between atoms: C21_23  and  C22_24 
REMARK   11  A    between atoms: C22_24  and  O3_25 
REMARK   12  A    between atoms: C24_27  and  C26_29 
REMARK   13  A    between atoms: C29_33  and  O5_35 
ROOT
HETATM    1  C15 UNL     1      -1.176  49.055 -18.395  1.00  0.00     0.149 C 
HETATM    2  C16 UNL     1      -1.070  49.641 -19.806  1.00  0.00     0.054 C 
HETATM    3  C17 UNL     1      -2.537  49.836 -20.279  1.00  0.00     0.050 C 
HETATM    4  C18 UNL     1      -3.194  50.078 -18.909  1.00  0.00     0.270 C 
HETATM    5  O2  UNL     1      -2.536  49.223 -17.974  1.00  0.00    -0.351 OA
HETATM    6  C19 UNL     1      -2.611  51.089 -21.251  1.00  0.00     0.032 C 
HETATM    7  C23 UNL     1      -1.878  50.752 -22.567  1.00  0.00    -0.066 C 
HETATM    8  C24 UNL     1      -0.859  51.478 -23.089  1.00  0.00    -0.021 C 
HETATM    9  C25 UNL     1      -0.109  51.124 -24.341  1.00  0.00     0.052 C 
HETATM   10  C27 UNL     1      -2.437  49.525 -23.257  1.00  0.00     0.038 C 
HETATM   11  C28 UNL     1      -2.416  48.300 -22.351  1.00  0.00     0.042 C 
HETATM   12  C29 UNL     1      -3.097  48.533 -20.982  1.00  0.00     0.067 C 
HETATM   13  C30 UNL     1      -2.991  47.219 -20.188  1.00  0.00     0.047 C 
ENDROOT
BRANCH   4  14
HETATM   14  O1  UNL     1      -2.961  51.392 -18.429  1.00  0.00    -0.370 OA
HETATM   15  H26 UNL     1      -3.383  51.401 -17.552  1.00  0.00     0.212 HD
ENDBRANCH   4  14
BRANCH   6  16
HETATM   16  C20 UNL     1      -3.998  51.676 -21.633  1.00  0.00     0.012 C 
BRANCH  16  17
HETATM   17  C21 UNL     1      -4.107  52.482 -22.933  1.00  0.00     0.027 C 
BRANCH  17  18
HETATM   18  C22 UNL     1      -5.104  51.941 -23.953  1.00  0.00     0.164 C 
BRANCH  18  19
HETATM   19  O3  UNL     1      -6.237  51.377 -23.307  1.00  0.00    -0.401 OA
HETATM   20  H34 UNL     1      -6.003  50.443 -23.107  1.00  0.00     0.209 HD
ENDBRANCH  18  19
ENDBRANCH  17  18
ENDBRANCH  16  17
ENDBRANCH   6  16
BRANCH  12  21
HETATM   21  O5  UNL     1      -4.503  48.714 -21.209  1.00  0.00    -0.389 OA
HETATM   22  H46 UNL     1      -4.855  47.919 -21.649  1.00  0.00     0.210 HD
ENDBRANCH  12  21
BRANCH   1  23
HETATM   23  C14 UNL     1      -0.279  49.736 -17.398  1.00  0.00     0.011 C 
HETATM   24  C12 UNL     1       0.303  50.953 -17.474  1.00  0.00    -0.063 C 
HETATM   25  C13 UNL     1       0.156  51.892 -18.645  1.00  0.00     0.048 C 
BRANCH  24  26
HETATM   26  C11 UNL     1       1.124  51.402 -16.345  1.00  0.00     0.006 C 
HETATM   27  C10 UNL     1       1.290  50.761 -15.176  1.00  0.00     0.001 C 
BRANCH  27  28
HETATM   28  C9  UNL     1       2.165  51.252 -14.132  1.00  0.00     0.002 C 
HETATM   29  C7  UNL     1       1.787  51.779 -12.950  1.00  0.00    -0.084 C 
HETATM   30  C8  UNL     1       0.362  52.054 -12.543  1.00  0.00     0.043 C 
BRANCH  29  31
HETATM   31  C6  UNL     1       2.838  52.169 -11.921  1.00  0.00     0.037 C 
BRANCH  31  32
HETATM   32  C5  UNL     1       2.287  52.925 -10.698  1.00  0.00     0.031 C 
BRANCH  32  33
HETATM   33  C4  UNL     1       2.460  54.419 -10.795  1.00  0.00    -0.024 C 
HETATM   34  C2  UNL     1       3.561  55.157 -10.545  1.00  0.00    -0.091 C 
HETATM   35  C1  UNL     1       4.894  54.620 -10.101  1.00  0.00     0.042 C 
HETATM   36  C3  UNL     1       3.528  56.654 -10.712  1.00  0.00     0.042 C 
ENDBRANCH  32  33
ENDBRANCH  31  32
ENDBRANCH  29  31
ENDBRANCH  27  28
ENDBRANCH  24  26
ENDBRANCH   1  23
BRANCH   8  37
HETATM   37  C26 UNL     1      -0.406  52.760 -22.470  1.00  0.00     0.265 C 
HETATM   38  O4  UNL     1       0.540  53.414 -22.891  1.00  0.00    -0.302 OA
ENDBRANCH   8  37
TORSDOF 13
ENDMDL
