MODEL 1
REMARK minimizedAffinity -9.04434299
REMARK CNNscore 0.784823835
REMARK CNNaffinity 6.65506935
REMARK  12 active torsions:
REMARK  status: ('A' for Active; 'I' for Inactive)
REMARK    1  A    between atoms: N1_6  and  O1_8 
REMARK    2  A    between atoms: O1_8  and  C6_9 
REMARK    3  A    between atoms: C6_9  and  C7_10 
REMARK       I    between atoms: C7_10  and  N2_12 
REMARK    4  A    between atoms: N2_12  and  C8_13 
REMARK    5  A    between atoms: C8_13  and  C9_14 
REMARK    6  A    between atoms: C12_17  and  C13_18 
REMARK    7  A    between atoms: C13_18  and  O4_20 
REMARK    8  A    between atoms: C22_29  and  O5_30 
REMARK    9  A    between atoms: C29_37  and  O6_38 
REMARK   10  A    between atoms: C29_37  and  C30_39 
REMARK   11  A    between atoms: C30_39  and  C31_41 
REMARK   12  A    between atoms: C31_41  and  O8_42 
ROOT
HETATM    1  C1  UNL     1      -1.552   7.031  14.886  1.00  0.00     0.020 C 
HETATM    2  C2  UNL     1      -0.896   8.382  14.527  1.00  0.00    -0.014 C 
HETATM    3  C3  UNL     1      -0.296   9.011  15.820  1.00  0.00     0.020 C 
HETATM    4  C4  UNL     1      -1.339   9.582  16.772  1.00  0.00     0.060 C 
HETATM    5  C5  UNL     1      -2.187  10.606  16.049  1.00  0.00     0.032 C 
HETATM    6  N1  UNL     1      -2.667  11.691  16.582  1.00  0.00    -0.271 N 
ATOM      7  H1  UNL     1      -3.230  12.372  16.072  1.00  0.00     0.194 HD
HETATM    8  C16 UNL     1      -2.542  10.319  14.637  1.00  0.00     0.030 C 
HETATM    9  C17 UNL     1      -1.998   9.290  13.964  1.00  0.00    -0.069 C 
HETATM   10  C18 UNL     1      -2.491   8.959  12.576  1.00  0.00     0.035 C 
HETATM   11  C19 UNL     1      -1.346   8.877  11.578  1.00  0.00     0.010 C 
HETATM   12  C20 UNL     1      -0.260   7.887  12.030  1.00  0.00    -0.002 C 
HETATM   13  C21 UNL     1       0.261   8.262  13.454  1.00  0.00     0.031 C 
HETATM   14  C22 UNL     1       1.483   7.397  13.878  1.00  0.00     0.124 C 
HETATM   15  C23 UNL     1       2.583   7.322  12.796  1.00  0.00     0.045 C 
HETATM   16  C24 UNL     1       2.054   6.913  11.402  1.00  0.00     0.001 C 
HETATM   17  C25 UNL     1       1.586   5.433  11.403  1.00  0.00     0.019 C 
HETATM   18  C26 UNL     1       0.922   7.908  11.049  1.00  0.00     0.002 C 
HETATM   19  C27 UNL     1       0.645   7.630   9.578  1.00  0.00     0.009 C 
HETATM   20  C28 UNL     1       2.033   7.324   8.987  1.00  0.00     0.047 C 
HETATM   21  C29 UNL     1       3.012   7.154  10.188  1.00  0.00     0.128 C 
ENDROOT
BRANCH   6  22
HETATM   22  O1  UNL     1      -2.323  11.820  17.933  1.00  0.00    -0.271 OA
BRANCH  22  23
HETATM   23  C6  UNL     1      -3.447  11.453  18.730  1.00  0.00     0.303 C 
BRANCH  23  24
HETATM   24  C7  UNL     1      -4.447  12.599  18.815  1.00  0.00     0.244 C 
HETATM   25  O2  UNL     1      -4.905  13.147  17.816  1.00  0.00    -0.271 OA
HETATM   26  N2  UNL     1      -4.840  12.909  20.101  1.00  0.00    -0.355 N 
HETATM   27  H10 UNL     1      -4.267  12.540  20.851  1.00  0.00     0.162 HD
BRANCH  26  28
HETATM   28  C8  UNL     1      -5.743  13.996  20.386  1.00  0.00     0.161 C 
BRANCH  28  29
HETATM   29  C9  UNL     1      -6.907  13.535  21.224  1.00  0.00    -0.040 A 
HETATM   30  C10 UNL     1      -6.733  13.289  22.595  1.00  0.00     0.010 A 
HETATM   31  C11 UNL     1      -7.802  12.848  23.378  1.00  0.00     0.019 A 
HETATM   32  C12 UNL     1      -9.060  12.644  22.798  1.00  0.00     0.037 A 
HETATM   33  C14 UNL     1      -9.238  12.879  21.431  1.00  0.00     0.019 A 
HETATM   34  C15 UNL     1      -8.165  13.317  20.648  1.00  0.00     0.010 A 
BRANCH  32  35
HETATM   35  C13 UNL     1     -10.167  12.180  23.669  1.00  0.00     0.176 C 
HETATM   36  O3  UNL     1     -11.281  11.856  23.299  1.00  0.00    -0.646 OA
BRANCH  35  37
HETATM   37  O4  UNL     1      -9.825  12.137  24.969  1.00  0.00    -0.773 OA
HETATM   38  H15 UNL     1     -10.637  11.810  25.411  1.00  0.00     0.167 HD
ENDBRANCH  35  37
ENDBRANCH  32  35
ENDBRANCH  28  29
ENDBRANCH  26  28
ENDBRANCH  23  24
ENDBRANCH  22  23
ENDBRANCH   6  22
BRANCH  14  39
HETATM   39  O5  UNL     1       1.087   6.080  14.232  1.00  0.00    -0.395 OA
HETATM   40  H26 UNL     1       1.850   5.644  14.650  1.00  0.00     0.210 HD
ENDBRANCH  14  39
BRANCH  21  41
HETATM   41  O6  UNL     1       3.690   8.413  10.318  1.00  0.00    -0.381 OA
HETATM   42  H37 UNL     1       4.376   8.313  11.007  1.00  0.00     0.211 HD
ENDBRANCH  21  41
BRANCH  21  43
HETATM   43  C30 UNL     1       4.049   6.030   9.920  1.00  0.00     0.184 C 
HETATM   44  O7  UNL     1       3.898   5.166   9.054  1.00  0.00    -0.292 OA
BRANCH  43  45
HETATM   45  C31 UNL     1       5.289   5.996  10.810  1.00  0.00     0.245 C 
BRANCH  45  46
HETATM   46  O8  UNL     1       6.165   4.922  10.507  1.00  0.00    -0.393 OA
HETATM   47  H40 UNL     1       5.735   4.113  10.845  1.00  0.00     0.209 HD
ENDBRANCH  45  46
ENDBRANCH  43  45
ENDBRANCH  21  43
TORSDOF 12
ENDMDL
