MODEL 1
REMARK minimizedAffinity -9.0624094
REMARK  4 active torsions:
REMARK  status: ('A' for Active; 'I' for Inactive)
REMARK    1  A    between atoms: C2_2  and  N1_3 
REMARK       I    between atoms: N1_3  and  C3_4 
REMARK       I    between atoms: C3_4  and  N2_6 
REMARK    2  A    between atoms: C6_9  and  N3_10 
REMARK    3  A    between atoms: N3_10  and  C7_11 
REMARK    4  A    between atoms: C10_17  and  C11_18 
ROOT
HETATM    1  C7  UNL     1      -2.723  50.632 -22.428  1.00  0.00     0.158 A 
HETATM    2  N4  UNL     1      -3.296  49.423 -22.366  1.00  0.00    -0.341 N 
ATOM      3  H4  UNL     1      -3.600  49.020 -21.480  1.00  0.00     0.167 HD
HETATM    4  C8  UNL     1      -3.453  48.761 -23.533  1.00  0.00     0.116 A 
HETATM    5  C9  UNL     1      -3.063  49.252 -24.757  1.00  0.00     0.077 A 
HETATM    6 CL1  UNL     1      -3.349  48.331 -26.177  1.00  0.00    -0.080 Cl
HETATM    7  C10 UNL     1      -2.485  50.506 -24.715  1.00  0.00     0.070 A 
HETATM    8  N6  UNL     1      -2.321  51.206 -23.564  1.00  0.00    -0.331 N 
ATOM      9  H6  UNL     1      -1.906  52.138 -23.568  1.00  0.00     0.168 HD
ENDROOT
BRANCH   1  10
HETATM   10  N3  UNL     1      -2.513  51.379 -21.278  1.00  0.00    -0.259 NA
HETATM   11  H12 UNL     1      -3.397  51.856 -21.118  1.00  0.00     0.131 HD
BRANCH  10  12
HETATM   12  C6  UNL     1      -1.959  50.658 -20.132  1.00  0.00     0.066 C 
HETATM   13  C5  UNL     1      -0.429  50.560 -20.244  1.00  0.00     0.040 C 
HETATM   14  C4  UNL     1       0.285  51.653 -19.457  1.00  0.00     0.129 C 
HETATM   15  N2  UNL     1      -0.091  51.643 -18.041  1.00  0.00    -0.334 N 
HETATM   16  C3  UNL     1       0.756  51.964 -16.993  1.00  0.00     0.318 C 
HETATM   17  C20 UNL     1      -1.415  51.127 -17.710  1.00  0.00     0.129 C 
HETATM   18  N1  UNL     1       1.928  52.571 -17.367  1.00  0.00    -0.343 N 
HETATM   19  O1  UNL     1       0.483  51.725 -15.819  1.00  0.00    -0.247 OA
HETATM   20  H6  UNL     1       1.884  53.111 -18.216  1.00  0.00     0.164 HD
HETATM   21  C19 UNL     1      -2.401  51.371 -18.843  1.00  0.00     0.040 C 
BRANCH  18  22
HETATM   22  C2  UNL     1       2.894  53.006 -16.377  1.00  0.00     0.120 C 
HETATM   23  C1  UNL     1       4.192  52.222 -16.465  1.00  0.00     0.026 C 
ENDBRANCH  18  22
ENDBRANCH  10  12
ENDBRANCH   1  10
BRANCH   7  24
HETATM   24  C11 UNL     1      -2.014  51.205 -25.901  1.00  0.00     0.020 A 
HETATM   25  C12 UNL     1      -2.849  51.832 -26.806  1.00  0.00     0.103 A 
HETATM   26  N5  UNL     1      -2.073  52.363 -27.802  1.00  0.00    -0.364 N 
HETATM   27  C13 UNL     1      -0.746  52.074 -27.580  1.00  0.00     0.043 A 
HETATM   28  H15 UNL     1      -2.419  52.881 -28.599  1.00  0.00     0.165 HD
HETATM   29  C14 UNL     1       0.387  52.404 -28.334  1.00  0.00     0.030 A 
HETATM   30  C18 UNL     1      -0.678  51.334 -26.397  1.00  0.00     0.004 A 
HETATM   31  C15 UNL     1       1.628  51.961 -27.865  1.00  0.00     0.002 A 
HETATM   32  C16 UNL     1       1.729  51.220 -26.691  1.00  0.00     0.001 A 
HETATM   33  C17 UNL     1       0.586  50.900 -25.949  1.00  0.00     0.014 A 
ENDBRANCH   7  24
TORSDOF 4
ENDMDL
