MODEL 1
REMARK minimizedAffinity -9.19853115
REMARK CNNscore 0.130038753
REMARK CNNaffinity 6.67060995
REMARK  6 active torsions:
REMARK  status: ('A' for Active; 'I' for Inactive)
REMARK    1  A    between atoms: C6_7  and  O2_8 
REMARK    2  A    between atoms: C17_21  and  C18_22 
REMARK    3  A    between atoms: C18_22  and  C19_23 
REMARK    4  A    between atoms: C23_27  and  C24_28 
REMARK    5  A    between atoms: C24_28  and  N1_29 
REMARK    6  A    between atoms: C24_28  and  N2_30 
ROOT
HETATM    1  C1  UNL     1       2.246  51.456 -14.691  1.00  0.00     0.077 C 
HETATM    2  C2  UNL     1       1.592  51.569 -16.032  1.00  0.00     0.053 A 
HETATM    3  C3  UNL     1       1.888  52.547 -16.898  1.00  0.00     0.088 A 
HETATM    4  C4  UNL     1       1.198  52.592 -18.195  1.00  0.00     0.190 A 
HETATM    5  O1  UNL     1       1.438  53.468 -19.019  1.00  0.00    -0.287 OA
HETATM    6  C5  UNL     1       0.205  51.543 -18.463  1.00  0.00     0.082 A 
HETATM    7  C6  UNL     1      -0.524  51.505 -19.662  1.00  0.00     0.092 A 
HETATM    8  C7  UNL     1      -1.474  50.496 -19.893  1.00  0.00     0.016 A 
HETATM    9  C8  UNL     1      -1.675  49.528 -18.873  1.00  0.00     0.082 A 
HETATM   10  C9  UNL     1      -0.952  49.581 -17.679  1.00  0.00     0.075 A 
HETATM   11  C10 UNL     1      -0.011  50.585 -17.477  1.00  0.00     0.095 A 
HETATM   12  O3  UNL     1       0.662  50.572 -16.280  1.00  0.00    -0.314 OA
HETATM   13  O4  UNL     1      -2.587  48.488 -18.934  1.00  0.00    -0.337 OA
HETATM   14  C11 UNL     1      -3.059  48.187 -20.262  1.00  0.00     0.091 C 
HETATM   15  C12 UNL     1      -1.940  47.400 -20.978  1.00  0.00     0.049 C 
HETATM   16  C13 UNL     1      -4.368  47.282 -20.190  1.00  0.00     0.041 C 
HETATM   17  C14 UNL     1      -4.736  46.509 -21.498  1.00  0.00     0.003 C 
HETATM   18  C15 UNL     1      -6.211  46.474 -21.970  1.00  0.00     0.003 C 
HETATM   19  C16 UNL     1      -6.893  47.733 -22.562  1.00  0.00     0.042 C 
HETATM   20  C17 UNL     1      -6.384  48.280 -23.918  1.00  0.00     0.107 A 
HETATM   21  O5  UNL     1      -5.005  48.068 -24.121  1.00  0.00    -0.352 OA
HETATM   22  C26 UNL     1      -5.342  49.468 -23.892  1.00  0.00     0.180 A 
HETATM   23  C27 UNL     1      -4.618  50.253 -24.976  1.00  0.00     0.052 C 
HETATM   24  C28 UNL     1      -3.298  50.923 -24.430  1.00  0.00     0.004 C 
HETATM   25  C29 UNL     1      -2.221  49.953 -23.867  1.00  0.00     0.001 C 
HETATM   26  C30 UNL     1      -1.524  50.317 -22.512  1.00  0.00     0.012 C 
HETATM   27  C31 UNL     1      -2.323  50.494 -21.165  1.00  0.00     0.057 C 
HETATM   28  C32 UNL     1      -3.472  49.528 -20.886  1.00  0.00     0.175 C 
HETATM   29  O6  UNL     1      -4.107  49.196 -22.073  1.00  0.00    -0.310 OA
HETATM   30  C33 UNL     1      -5.083  49.964 -22.533  1.00  0.00     0.297 C 
HETATM   31  O7  UNL     1      -5.620  50.928 -22.020  1.00  0.00    -0.262 OA
ENDROOT
BRANCH  20  32
HETATM   32  C18 UNL     1      -7.251  48.094 -25.132  1.00  0.00     0.080 C 
BRANCH  32  33
HETATM   33  C19 UNL     1      -8.268  46.994 -24.935  1.00  0.00    -0.055 A 
HETATM   34  C20 UNL     1      -7.938  45.670 -25.244  1.00  0.00     0.007 A 
HETATM   35  C21 UNL     1      -8.862  44.646 -25.053  1.00  0.00     0.001 A 
HETATM   36  C22 UNL     1     -10.127  44.934 -24.539  1.00  0.00     0.011 A 
HETATM   37  C23 UNL     1     -10.488  46.251 -24.209  1.00  0.00     0.004 A 
HETATM   38  C25 UNL     1      -9.544  47.273 -24.421  1.00  0.00     0.018 A 
BRANCH  37  39
HETATM   39  C24 UNL     1     -11.837  46.593 -23.612  1.00  0.00     0.479 C 
BRANCH  39  40
HETATM   40  N1  UNL     1     -12.847  46.875 -24.590  1.00  0.00     0.116 N 
HETATM   41  H24 UNL     1     -13.725  46.903 -24.074  1.00  0.00     0.316 HD
HETATM   42  H25 UNL     1     -12.932  46.087 -25.221  1.00  0.00     0.316 HD
ENDBRANCH  39  40
BRANCH  39  43
HETATM   43  N2  UNL     1     -12.401  45.506 -22.853  1.00  0.00     0.116 N 
HETATM   44  H26 UNL     1     -11.762  45.303 -22.085  1.00  0.00     0.316 HD
HETATM   45  H27 UNL     1     -12.393  44.667 -23.425  1.00  0.00     0.316 HD
ENDBRANCH  39  43
ENDBRANCH  37  39
ENDBRANCH  32  33
ENDBRANCH  20  32
BRANCH   7  46
HETATM   46  O2  UNL     1      -0.355  52.464 -20.629  1.00  0.00    -0.359 OA
HETATM   47  H5  UNL     1       0.322  53.107 -20.322  1.00  0.00     0.217 HD
ENDBRANCH   7  46
TORSDOF 6
ENDMDL
