MODEL 1
REMARK minimizedAffinity -8.65700531
REMARK  13 active torsions:
REMARK  status: ('A' for Active; 'I' for Inactive)
REMARK    1  A    between atoms: C4_4  and  C5_5 
REMARK    2  A    between atoms: C5_5  and  C6_6 
REMARK    3  A    between atoms: C6_6  and  C7_7 
REMARK    4  A    between atoms: C9_9  and  C10_10 
REMARK    5  A    between atoms: C11_11  and  C12_12 
REMARK    6  A    between atoms: C14_14  and  C15_15 
REMARK    7  A    between atoms: C18_18  and  C19_19 
REMARK    8  A    between atoms: C19_19  and  C20_20 
REMARK    9  A    between atoms: C20_20  and  C21_21 
REMARK   10  A    between atoms: C21_21  and  O1_22 
REMARK   11  A    between atoms: C23_24  and  C25_26 
REMARK   12  A    between atoms: C28_30  and  O3_32 
REMARK   13  A    between atoms: C30_33  and  O4_34 
ROOT
HETATM    1  C15 UNL     1       0.658   6.916  12.596  1.00  0.00     0.149 C 
HETATM    2  C16 UNL     1       1.637   6.113  11.752  1.00  0.00     0.054 C 
HETATM    3  C17 UNL     1       2.429   7.168  10.938  1.00  0.00     0.050 C 
HETATM    4  C18 UNL     1       3.829   7.534  11.626  1.00  0.00     0.032 C 
HETATM    5  C22 UNL     1       4.741   8.426  10.732  1.00  0.00    -0.066 C 
HETATM    6  C23 UNL     1       6.022   8.761  11.056  1.00  0.00    -0.021 C 
HETATM    7  C24 UNL     1       6.837   8.167  12.174  1.00  0.00     0.052 C 
HETATM    8  C26 UNL     1       4.093   8.873   9.431  1.00  0.00     0.038 C 
HETATM    9  C27 UNL     1       3.450   7.732   8.633  1.00  0.00     0.042 C 
HETATM   10  C28 UNL     1       2.762   6.645   9.489  1.00  0.00     0.067 C 
HETATM   11  C29 UNL     1       3.633   5.371   9.482  1.00  0.00     0.047 C 
HETATM   12  C30 UNL     1       1.414   8.351  10.940  1.00  0.00     0.270 C 
HETATM   13  O5  UNL     1       0.388   8.126  11.895  1.00  0.00    -0.351 OA
ENDROOT
BRANCH   4  14
HETATM   14  C19 UNL     1       3.776   7.972  13.121  1.00  0.00     0.012 C 
BRANCH  14  15
HETATM   15  C20 UNL     1       5.101   8.193  13.862  1.00  0.00     0.027 C 
BRANCH  15  16
HETATM   16  C21 UNL     1       4.911   8.107  15.377  1.00  0.00     0.164 C 
BRANCH  16  17
HETATM   17  O1  UNL     1       4.884   6.742  15.769  1.00  0.00    -0.401 OA
HETATM   18  H32 UNL     1       4.691   6.713  16.723  1.00  0.00     0.209 HD
ENDBRANCH  16  17
ENDBRANCH  15  16
ENDBRANCH  14  15
ENDBRANCH   4  14
BRANCH  10  19
HETATM   19  O3  UNL     1       1.564   6.246   8.804  1.00  0.00    -0.389 OA
HETATM   20  H44 UNL     1       0.966   7.026   8.821  1.00  0.00     0.210 HD
ENDBRANCH  10  19
BRANCH  12  21
HETATM   21  O4  UNL     1       0.742   8.516   9.700  1.00  0.00    -0.370 OA
HETATM   22  H46 UNL     1       0.083   9.212   9.895  1.00  0.00     0.212 HD
ENDBRANCH  12  21
BRANCH   1  23
HETATM   23  C14 UNL     1      -0.617   6.229  13.000  1.00  0.00     0.011 C 
HETATM   24  C12 UNL     1      -1.324   5.259  12.381  1.00  0.00    -0.063 C 
HETATM   25  C13 UNL     1      -0.880   4.579  11.112  1.00  0.00     0.048 C 
BRANCH  24  26
HETATM   26  C11 UNL     1      -2.609   4.859  12.959  1.00  0.00     0.006 C 
HETATM   27  C10 UNL     1      -3.785   4.742  12.315  1.00  0.00     0.001 C 
BRANCH  27  28
HETATM   28  C9  UNL     1      -5.020   4.400  12.994  1.00  0.00     0.002 C 
HETATM   29  C7  UNL     1      -5.947   3.508  12.586  1.00  0.00    -0.084 C 
HETATM   30  C8  UNL     1      -5.835   2.624  11.368  1.00  0.00     0.043 C 
BRANCH  29  31
HETATM   31  C6  UNL     1      -7.212   3.302  13.411  1.00  0.00     0.037 C 
BRANCH  31  32
HETATM   32  C5  UNL     1      -8.348   4.300  13.122  1.00  0.00     0.031 C 
BRANCH  32  33
HETATM   33  C4  UNL     1      -7.987   5.729  13.434  1.00  0.00    -0.024 C 
HETATM   34  C2  UNL     1      -7.682   6.273  14.628  1.00  0.00    -0.091 C 
HETATM   35  C1  UNL     1      -7.326   7.736  14.728  1.00  0.00     0.042 C 
HETATM   36  C3  UNL     1      -7.663   5.550  15.947  1.00  0.00     0.042 C 
ENDBRANCH  32  33
ENDBRANCH  31  32
ENDBRANCH  29  31
ENDBRANCH  27  28
ENDBRANCH  24  26
ENDBRANCH   1  23
BRANCH   6  37
HETATM   37  C25 UNL     1       6.785   9.822  10.315  1.00  0.00     0.265 C 
HETATM   38  O2  UNL     1       7.845  10.296  10.719  1.00  0.00    -0.302 OA
ENDBRANCH   6  37
TORSDOF 13
ENDMDL
