MODEL 1
REMARK minimizedAffinity -6.60077
REMARK CNNscore 0.386190772
REMARK CNNaffinity 5.42809486
REMARK  2 active torsions:
REMARK  status: ('A' for Active; 'I' for Inactive)
REMARK    1  A    between atoms: C21_27  and  C22_28 
REMARK    2  A    between atoms: C22_28  and  O7_30 
ROOT
HETATM    1  C1  UNL     1     -15.910  46.524 -20.686  1.00  0.00     0.043 C 
HETATM    2  C2  UNL     1     -16.103  46.524 -22.179  1.00  0.00    -0.076 C 
HETATM    3  C3  UNL     1     -15.208  47.145 -22.978  1.00  0.00     0.084 C 
HETATM    4  C4  UNL     1     -15.266  47.154 -24.458  1.00  0.00     0.283 C 
HETATM    5  O1  UNL     1     -16.256  46.922 -25.128  1.00  0.00    -0.260 OA
HETATM    6  O2  UNL     1     -14.003  47.345 -24.932  1.00  0.00    -0.317 OA
HETATM    7  C5  UNL     1     -13.820  47.029 -26.328  1.00  0.00     0.195 C 
HETATM    8  C6  UNL     1     -13.041  45.671 -26.546  1.00  0.00     0.053 C 
HETATM    9  C7  UNL     1     -11.536  45.938 -26.090  1.00  0.00     0.159 C 
HETATM   10  C8  UNL     1     -11.270  45.881 -24.609  1.00  0.00     0.011 C 
HETATM   11  C9  UNL     1     -12.045  45.182 -23.762  1.00  0.00    -0.054 C 
HETATM   12  C10 UNL     1     -11.742  45.120 -22.292  1.00  0.00     0.046 C 
HETATM   13  C11 UNL     1     -13.180  44.381 -24.241  1.00  0.00     0.180 A 
HETATM   14  O3  UNL     1     -12.993  43.451 -25.311  1.00  0.00    -0.370 OA
HETATM   15  C12 UNL     1     -13.716  44.643 -25.641  1.00  0.00     0.170 A 
HETATM   16  O4  UNL     1     -10.532  45.109 -26.698  1.00  0.00    -0.372 OA
HETATM   17  C13 UNL     1     -10.763  44.755 -28.065  1.00  0.00     0.162 C 
HETATM   18  C14 UNL     1     -11.479  43.392 -28.073  1.00  0.00     0.068 C 
HETATM   19  C15 UNL     1     -12.941  43.726 -28.419  1.00  0.00     0.147 C 
HETATM   20  O5  UNL     1     -13.930  42.950 -27.749  1.00  0.00    -0.312 OA
HETATM   21  C16 UNL     1     -13.988  41.632 -28.035  1.00  0.00     0.283 C 
HETATM   22  O6  UNL     1     -13.340  41.049 -28.890  1.00  0.00    -0.260 OA
HETATM   23  C17 UNL     1     -14.877  40.926 -27.087  1.00  0.00     0.082 C 
HETATM   24  C18 UNL     1     -15.991  41.362 -26.476  1.00  0.00     0.006 C 
HETATM   25  C19 UNL     1     -16.684  42.610 -26.705  1.00  0.00    -0.001 C 
HETATM   26  C20 UNL     1     -17.624  43.159 -25.919  1.00  0.00     0.007 C 
HETATM   27  C21 UNL     1     -18.115  42.706 -24.562  1.00  0.00     0.172 C 
HETATM   28  O8  UNL     1     -18.297  43.875 -23.745  1.00  0.00    -0.379 OA
HETATM   29  C24 UNL     1     -17.079  44.395 -23.206  1.00  0.00     0.173 C 
HETATM   30  C25 UNL     1     -17.349  45.800 -22.657  1.00  0.00     0.060 C 
HETATM   31  C26 UNL     1     -13.084  45.261 -28.113  1.00  0.00     0.034 C 
HETATM   32  C27 UNL     1     -14.305  45.774 -28.888  1.00  0.00     0.022 C 
HETATM   33  C28 UNL     1     -11.751  45.702 -28.667  1.00  0.00     0.119 A 
HETATM   34  C29 UNL     1     -11.400  47.041 -29.268  1.00  0.00     0.210 A 
HETATM   35  O9  UNL     1     -11.664  45.883 -30.083  1.00  0.00    -0.371 OA
ENDROOT
BRANCH  27  36
HETATM   36  C22 UNL     1     -19.481  41.975 -24.684  1.00  0.00     0.146 C 
HETATM   37  C23 UNL     1     -19.939  41.845 -26.135  1.00  0.00     0.042 C 
BRANCH  36  38
HETATM   38  O7  UNL     1     -20.508  42.665 -23.961  1.00  0.00    -0.393 OA
HETATM   39  H27 UNL     1     -20.681  43.505 -24.415  1.00  0.00     0.210 HD
ENDBRANCH  36  38
ENDBRANCH  27  36
TORSDOF 2
ENDMDL
