MODEL 1
REMARK minimizedAffinity -6.81423521
REMARK CNNscore 0.626340032
REMARK CNNaffinity 6.8420639
REMARK  12 active torsions:
REMARK  status: ('A' for Active; 'I' for Inactive)
REMARK    1  A    between atoms: C4_4  and  C5_5 
REMARK    2  A    between atoms: C5_5  and  C6_6 
REMARK    3  A    between atoms: C6_6  and  C7_7 
REMARK    4  A    between atoms: C7_7  and  C9_9 
REMARK    5  A    between atoms: C17_17  and  C18_18 
REMARK    6  A    between atoms: C18_18  and  O1_20 
REMARK    7  A    between atoms: C18_18  and  C20_21 
REMARK    8  A    between atoms: C20_21  and  O2_22 
REMARK    9  A    between atoms: C21_23  and  C22_24 
REMARK   10  A    between atoms: C22_24  and  C23_25 
REMARK   11  A    between atoms: C23_25  and  C24_26 
REMARK   12  A    between atoms: C24_26  and  O4_28 
ROOT
HETATM    1  C9  UNL     1       4.393  54.862  -8.447  1.00  0.00    -0.002 C 
HETATM    2  C10 UNL     1       3.616  54.366  -7.209  1.00  0.00     0.006 C 
HETATM    3  C11 UNL     1       2.224  53.989  -7.703  1.00  0.00     0.011 C 
HETATM    4  C12 UNL     1       1.909  55.020  -8.811  1.00  0.00    -0.032 C 
HETATM    5  C13 UNL     1       1.561  56.377  -8.136  1.00  0.00     0.016 C 
HETATM    6  C14 UNL     1       0.677  54.614  -9.719  1.00  0.00     0.004 C 
HETATM    7  C15 UNL     1      -0.611  54.446  -8.892  1.00  0.00     0.007 C 
HETATM    8  C16 UNL     1      -1.739  53.613  -9.487  1.00  0.00     0.009 C 
HETATM    9  C17 UNL     1      -1.659  53.340 -10.998  1.00  0.00     0.031 C 
HETATM   10  C21 UNL     1      -0.242  52.812 -11.404  1.00  0.00    -0.025 A 
HETATM   11  C25 UNL     1       0.592  52.040 -10.379  1.00  0.00     0.021 A 
HETATM   12  C26 UNL     1       0.970  53.467 -10.685  1.00  0.00    -0.027 A 
HETATM   13  C27 UNL     1       2.247  53.697 -11.471  1.00  0.00     0.011 C 
HETATM   14  C28 UNL     1       3.429  53.872 -10.540  1.00  0.00     0.011 C 
HETATM   15  C29 UNL     1       3.295  55.089  -9.571  1.00  0.00    -0.032 C 
HETATM   16  C30 UNL     1       3.429  56.365 -10.417  1.00  0.00     0.016 C 
ENDROOT
BRANCH   1  17
HETATM   17  C7  UNL     1       5.524  55.883  -8.107  1.00  0.00    -0.014 C 
HETATM   18  C8  UNL     1       5.047  56.968  -7.132  1.00  0.00     0.010 C 
BRANCH  17  19
HETATM   19  C6  UNL     1       6.892  55.301  -7.695  1.00  0.00     0.008 C 
BRANCH  19  20
HETATM   20  C5  UNL     1       7.130  55.336  -6.179  1.00  0.00     0.028 C 
BRANCH  20  21
HETATM   21  C4  UNL     1       8.497  55.878  -5.854  1.00  0.00    -0.025 C 
HETATM   22  C2  UNL     1       8.787  57.054  -5.265  1.00  0.00    -0.091 C 
HETATM   23  C1  UNL     1       7.771  58.087  -4.859  1.00  0.00     0.042 C 
HETATM   24  C3  UNL     1      10.214  57.439  -4.974  1.00  0.00     0.042 C 
ENDBRANCH  20  21
ENDBRANCH  19  20
ENDBRANCH  17  19
ENDBRANCH   1  17
BRANCH  10  25
HETATM   25  C22 UNL     1      -0.075  52.533 -12.911  1.00  0.00     0.021 C 
BRANCH  25  26
HETATM   26  C23 UNL     1       0.331  51.101 -13.266  1.00  0.00     0.111 C 
BRANCH  26  27
HETATM   27  C24 UNL     1       1.554  51.091 -14.139  1.00  0.00     0.139 C 
HETATM   28  O3  UNL     1       2.307  50.157 -14.356  1.00  0.00    -0.650 OA
BRANCH  27  29
HETATM   29  O4  UNL     1       1.788  52.297 -14.698  1.00  0.00    -0.776 OA
HETATM   30  H41 UNL     1       2.604  52.158 -15.222  1.00  0.00     0.167 HD
ENDBRANCH  27  29
ENDBRANCH  26  27
ENDBRANCH  25  26
ENDBRANCH  10  25
BRANCH   9  31
HETATM   31  C18 UNL     1      -2.888  52.465 -11.504  1.00  0.00     0.080 C 
HETATM   32  C19 UNL     1      -4.219  52.691 -10.755  1.00  0.00     0.048 C 
BRANCH  31  33
HETATM   33  O1  UNL     1      -2.620  51.061 -11.346  1.00  0.00    -0.388 OA
HETATM   34  H33 UNL     1      -3.249  50.617 -11.951  1.00  0.00     0.210 HD
ENDBRANCH  31  33
BRANCH  31  35
HETATM   35  C20 UNL     1      -3.152  52.731 -13.015  1.00  0.00     0.201 C 
BRANCH  35  36
HETATM   36  O2  UNL     1      -4.205  53.693 -13.150  1.00  0.00    -0.398 OA
HETATM   37  H36 UNL     1      -4.451  53.707 -14.093  1.00  0.00     0.209 HD
ENDBRANCH  35  36
ENDBRANCH  31  35
ENDBRANCH   9  31
TORSDOF 12
ENDMDL
