MODEL 1
REMARK minimizedAffinity -8.75502014
REMARK CNNscore 0.387743145
REMARK CNNaffinity 6.82189941
REMARK  10 active torsions:
REMARK  status: ('A' for Active; 'I' for Inactive)
REMARK    1  A    between atoms: C12_14  and  C13_15 
REMARK    2  A    between atoms: C13_15  and  C15_17 
REMARK    3  A    between atoms: C15_17  and  C16_18 
REMARK    4  A    between atoms: C16_18  and  C17_19 
REMARK    5  A    between atoms: C18_20  and  C20_22 
REMARK    6  A    between atoms: C20_22  and  O3_23 
REMARK    7  A    between atoms: C26_29  and  C27_30 
REMARK    8  A    between atoms: C27_30  and  C28_31 
REMARK    9  A    between atoms: C28_31  and  C29_32 
REMARK   10  A    between atoms: C29_32  and  O5_34 
ROOT
HETATM    1  C1  UNL     1       2.527   7.216  11.818  1.00  0.00     0.025 C 
HETATM    2  C2  UNL     1       1.694   6.216  12.130  1.00  0.00     0.015 C 
HETATM    3  C3  UNL     1       1.590   5.018  11.263  1.00  0.00     0.289 C 
HETATM    4  O1  UNL     1       2.338   4.712  10.353  1.00  0.00    -0.260 OA
HETATM    5  O2  UNL     1       0.507   4.306  11.672  1.00  0.00    -0.311 OA
HETATM    6  C4  UNL     1      -0.251   5.066  12.631  1.00  0.00     0.142 C 
HETATM    7  C5  UNL     1      -1.424   5.718  11.907  1.00  0.00     0.039 C 
HETATM    8  C6  UNL     1      -2.263   6.695  12.743  1.00  0.00     0.006 C 
HETATM    9  C7  UNL     1      -1.417   7.635  13.644  1.00  0.00    -0.027 A 
HETATM   10  C8  UNL     1      -2.265   8.571  14.534  1.00  0.00     0.011 C 
HETATM   11  C9  UNL     1      -3.473   7.919  15.221  1.00  0.00     0.011 C 
HETATM   12  C10 UNL     1      -4.340   7.152  14.210  1.00  0.00    -0.032 C 
HETATM   13  C11 UNL     1      -4.903   8.170  13.178  1.00  0.00     0.016 C 
HETATM   14  C12 UNL     1      -5.520   6.297  14.777  1.00  0.00    -0.002 C 
HETATM   15  C21 UNL     1      -5.687   5.174  13.706  1.00  0.00     0.006 C 
HETATM   16  C22 UNL     1      -4.450   5.225  12.787  1.00  0.00     0.011 C 
HETATM   17  C23 UNL     1      -3.410   6.034  13.579  1.00  0.00    -0.032 C 
HETATM   18  C24 UNL     1      -2.791   5.060  14.633  1.00  0.00     0.016 C 
HETATM   19  C25 UNL     1      -0.283   8.409  13.017  1.00  0.00     0.022 A 
HETATM   20  C26 UNL     1       0.081   7.259  13.931  1.00  0.00    -0.021 A 
HETATM   21  C30 UNL     1       0.730   6.039  13.262  1.00  0.00     0.063 C 
ENDROOT
BRANCH  14  22
HETATM   22  C13 UNL     1      -6.879   6.895  15.256  1.00  0.00    -0.014 C 
HETATM   23  C14 UNL     1      -7.151   6.894  16.768  1.00  0.00     0.010 C 
BRANCH  22  24
HETATM   24  C15 UNL     1      -8.123   6.319  14.538  1.00  0.00     0.008 C 
BRANCH  24  25
HETATM   25  C16 UNL     1      -9.486   6.852  15.000  1.00  0.00     0.028 C 
BRANCH  25  26
HETATM   26  C17 UNL     1     -10.136   7.772  14.003  1.00  0.00    -0.022 C 
HETATM   27  C18 UNL     1     -11.433   7.801  13.629  1.00  0.00    -0.064 C 
HETATM   28  C19 UNL     1     -12.492   6.897  14.203  1.00  0.00     0.045 C 
BRANCH  27  29
HETATM   29  C20 UNL     1     -11.973   8.751  12.580  1.00  0.00     0.197 C 
BRANCH  29  30
HETATM   30  O3  UNL     1     -13.382   8.650  12.437  1.00  0.00    -0.397 OA
HETATM   31  H29 UNL     1     -13.561   7.739  12.155  1.00  0.00     0.209 HD
ENDBRANCH  29  30
ENDBRANCH  27  29
ENDBRANCH  25  26
ENDBRANCH  24  25
ENDBRANCH  22  24
ENDBRANCH  14  22
BRANCH  20  32
HETATM   32  C27 UNL     1       0.616   7.515  15.348  1.00  0.00     0.021 C 
BRANCH  32  33
HETATM   33  C28 UNL     1       1.782   8.499  15.428  1.00  0.00     0.111 C 
BRANCH  33  34
HETATM   34  C29 UNL     1       3.137   7.879  15.635  1.00  0.00     0.139 C 
HETATM   35  O4  UNL     1       4.179   8.496  15.787  1.00  0.00    -0.650 OA
BRANCH  34  36
HETATM   36  O5  UNL     1       3.123   6.539  15.736  1.00  0.00    -0.776 OA
HETATM   37  H43 UNL     1       4.058   6.306  15.922  1.00  0.00     0.167 HD
ENDBRANCH  34  36
ENDBRANCH  33  34
ENDBRANCH  32  33
ENDBRANCH  20  32
TORSDOF 10
ENDMDL
