MODEL 1
REMARK minimizedAffinity -9.59659386
REMARK CNNscore 0.404467523
REMARK CNNaffinity 7.20394659
REMARK  12 active torsions:
REMARK  status: ('A' for Active; 'I' for Inactive)
REMARK    1  A    between atoms: O1_2  and  C2_3 
REMARK    2  A    between atoms: C2_3  and  C5_6 
REMARK    3  A    between atoms: C6_7  and  C7_8 
REMARK    4  A    between atoms: C7_8  and  C8_9 
REMARK    5  A    between atoms: C8_9  and  C10_11 
REMARK    6  A    between atoms: C28_30  and  O3_31 
REMARK    7  A    between atoms: O3_31  and  C29_32 
REMARK    8  A    between atoms: C30_34  and  C31_35 
REMARK    9  A    between atoms: C31_35  and  O5_36 
REMARK   10  A    between atoms: C32_37  and  O6_38 
REMARK   11  A    between atoms: C33_39  and  O7_40 
REMARK   12  A    between atoms: C34_41  and  O8_42 
ROOT
HETATM    1  C10 UNL     1      -5.460   6.389  14.890  1.00  0.00    -0.002 C 
HETATM    2  C11 UNL     1      -5.531   5.105  14.001  1.00  0.00     0.006 C 
HETATM    3  C12 UNL     1      -4.327   5.138  13.038  1.00  0.00     0.011 C 
HETATM    4  C13 UNL     1      -3.403   6.232  13.608  1.00  0.00    -0.029 C 
HETATM    5  C14 UNL     1      -2.613   5.546  14.761  1.00  0.00     0.016 C 
HETATM    6  C15 UNL     1      -2.438   6.884  12.574  1.00  0.00     0.028 C 
HETATM    7  C16 UNL     1      -1.407   5.946  11.985  1.00  0.00    -0.021 C 
HETATM    8  C17 UNL     1      -0.140   6.337  11.774  1.00  0.00     0.008 C 
HETATM    9  C18 UNL     1       0.346   7.732  12.162  1.00  0.00     0.092 C 
HETATM   10  O2  UNL     1      -0.248   8.619  11.193  1.00  0.00    -0.374 OA
HETATM   11  C19 UNL     1      -1.496   9.092  11.753  1.00  0.00     0.179 C 
HETATM   12  C20 UNL     1      -1.798   8.253  13.046  1.00  0.00    -0.004 C 
HETATM   13  C21 UNL     1      -2.673   9.102  14.006  1.00  0.00     0.014 C 
HETATM   14  C22 UNL     1      -3.709   8.372  14.876  1.00  0.00     0.011 C 
HETATM   15  C23 UNL     1      -4.468   7.293  14.090  1.00  0.00    -0.032 C 
HETATM   16  C24 UNL     1      -5.249   7.984  12.926  1.00  0.00     0.016 C 
HETATM   17  C25 UNL     1      -0.317   8.157  13.485  1.00  0.00     0.036 C 
HETATM   18  C26 UNL     1       0.165   7.319  14.659  1.00  0.00     0.011 C 
HETATM   19  C27 UNL     1       1.693   7.399  14.774  1.00  0.00     0.033 C 
HETATM   20  C28 UNL     1       2.409   7.038  13.454  1.00  0.00     0.136 C 
HETATM   21  C35 UNL     1       1.903   7.884  12.241  1.00  0.00     0.014 C 
HETATM   22  C36 UNL     1       2.316   9.374  12.386  1.00  0.00     0.021 C 
HETATM   23  C37 UNL     1       2.601   7.403  10.943  1.00  0.00     0.021 C 
ENDROOT
BRANCH  20  24
HETATM   24  O3  UNL     1       3.825   7.219  13.587  1.00  0.00    -0.352 OA
BRANCH  24  25
HETATM   25  C29 UNL     1       4.209   8.542  13.963  1.00  0.00     0.292 C 
HETATM   26  O4  UNL     1       5.116   9.074  12.994  1.00  0.00    -0.348 OA
HETATM   27  C30 UNL     1       6.354   8.349  12.852  1.00  0.00     0.179 C 
HETATM   28  C32 UNL     1       6.835   7.665  14.145  1.00  0.00     0.180 C 
HETATM   29  C33 UNL     1       6.345   8.474  15.344  1.00  0.00     0.183 C 
HETATM   30  C34 UNL     1       4.817   8.499  15.386  1.00  0.00     0.204 C 
BRANCH  27  31
HETATM   31  C31 UNL     1       6.261   7.361  11.682  1.00  0.00     0.198 C 
BRANCH  31  32
HETATM   32  O5  UNL     1       6.099   6.033  12.185  1.00  0.00    -0.398 OA
HETATM   33  H48 UNL     1       6.749   5.951  12.913  1.00  0.00     0.209 HD
ENDBRANCH  31  32
ENDBRANCH  27  31
BRANCH  28  34
HETATM   34  O6  UNL     1       8.268   7.568  14.197  1.00  0.00    -0.390 OA
HETATM   35  H50 UNL     1       8.644   8.442  13.988  1.00  0.00     0.210 HD
ENDBRANCH  28  34
BRANCH  29  36
HETATM   36  O7  UNL     1       6.841   7.915  16.572  1.00  0.00    -0.390 OA
HETATM   37  H52 UNL     1       7.764   7.646  16.387  1.00  0.00     0.210 HD
ENDBRANCH  29  36
BRANCH  30  38
HETATM   38  O8  UNL     1       4.415   9.647  16.160  1.00  0.00    -0.388 OA
HETATM   39  H54 UNL     1       4.850   9.538  17.028  1.00  0.00     0.210 HD
ENDBRANCH  30  38
ENDBRANCH  24  25
ENDBRANCH  20  24
BRANCH   1  40
HETATM   40  C8  UNL     1      -6.889   6.910  15.249  1.00  0.00    -0.010 C 
HETATM   41  C9  UNL     1      -7.143   6.924  16.763  1.00  0.00     0.010 C 
BRANCH  40  42
HETATM   42  C7  UNL     1      -7.973   6.028  14.561  1.00  0.00     0.031 C 
BRANCH  42  43
HETATM   43  C6  UNL     1      -9.226   6.698  14.050  1.00  0.00    -0.027 C 
HETATM   44  C5  UNL     1     -10.351   6.942  14.744  1.00  0.00     0.006 C 
BRANCH  44  45
HETATM   45  C2  UNL     1     -11.615   7.628  14.254  1.00  0.00     0.070 C 
HETATM   46  C3  UNL     1     -12.928   6.871  14.522  1.00  0.00     0.050 C 
HETATM   47  C4  UNL     1     -11.476   7.828  12.737  1.00  0.00     0.050 C 
BRANCH  45  48
HETATM   48  O1  UNL     1     -11.650   8.957  14.804  1.00  0.00    -0.382 OA
HETATM   49  C1  UNL     1     -11.240  10.003  13.929  1.00  0.00     0.202 C 
ENDBRANCH  45  48
ENDBRANCH  44  45
ENDBRANCH  42  43
ENDBRANCH  40  42
ENDBRANCH   1  40
TORSDOF 12
ENDMDL
