MODEL 1
REMARK minimizedAffinity -9.62778568
REMARK  4 active torsions:
REMARK  status: ('A' for Active; 'I' for Inactive)
REMARK    1  A    between atoms: C2_2  and  C3_3 
REMARK    2  A    between atoms: C2_2  and  C9_9 
REMARK    3  A    between atoms: C4_4  and  C5_5 
REMARK    4  A    between atoms: C23_23  and  O1_24 
ROOT
HETATM    1  C9  UNL     1      -1.757  49.404 -19.965  1.00  0.00     0.001 C 
HETATM    2  C10 UNL     1      -3.068  48.723 -20.464  1.00  0.00     0.006 C 
HETATM    3  C11 UNL     1      -3.245  49.104 -21.941  1.00  0.00     0.009 C 
HETATM    4  C12 UNL     1      -1.949  49.824 -22.288  1.00  0.00     0.036 C 
HETATM    5  C13 UNL     1      -1.557  50.571 -20.987  1.00  0.00    -0.033 C 
HETATM    6  C14 UNL     1      -2.468  51.767 -20.631  1.00  0.00     0.016 C 
HETATM    7  C15 UNL     1      -0.103  51.050 -21.174  1.00  0.00     0.010 C 
HETATM    8  C16 UNL     1       0.063  51.930 -22.426  1.00  0.00     0.010 C 
HETATM    9  C17 UNL     1      -0.437  51.253 -23.718  1.00  0.00     0.039 C 
HETATM   10  C18 UNL     1      -1.870  50.636 -23.586  1.00  0.00     0.123 C 
HETATM   11  C19 UNL     1      -2.967  51.636 -23.845  1.00  0.00     0.014 C 
HETATM   12  C20 UNL     1      -2.886  52.216 -25.050  1.00  0.00     0.014 C 
HETATM   13  C21 UNL     1      -1.663  51.806 -25.847  1.00  0.00     0.124 C 
HETATM   14  C22 UNL     1      -1.677  52.405 -27.259  1.00  0.00     0.078 C 
HETATM   15  C23 UNL     1      -0.346  52.252 -28.005  1.00  0.00     0.121 C 
HETATM   16  C24 UNL     1       0.671  51.358 -27.305  1.00  0.00     0.033 C 
HETATM   17  C25 UNL     1       0.926  51.770 -25.852  1.00  0.00     0.015 C 
HETATM   18  C26 UNL     1      -0.360  52.135 -25.038  1.00  0.00     0.001 C 
HETATM   19  C27 UNL     1      -0.286  53.656 -24.730  1.00  0.00     0.019 C 
HETATM   20  O2  UNL     1      -1.721  50.358 -25.992  1.00  0.00    -0.223 OA
HETATM   21  O3  UNL     1      -1.997  49.689 -24.684  1.00  0.00    -0.224 OA
ENDROOT
BRANCH   1  22
HETATM   22  C2  UNL     1      -1.796  49.715 -18.444  1.00  0.00     0.008 C 
HETATM   23  C1  UNL     1      -2.729  50.879 -18.090  1.00  0.00     0.014 C 
BRANCH  22  24
HETATM   24  C3  UNL     1      -0.388  49.932 -17.912  1.00  0.00    -0.026 C 
HETATM   25  C4  UNL     1       0.015  50.872 -17.042  1.00  0.00    -0.025 C 
BRANCH  25  26
HETATM   26  C5  UNL     1       1.384  51.042 -16.544  1.00  0.00     0.012 A 
HETATM   27  C6  UNL     1       1.576  51.396 -15.090  1.00  0.00     0.013 A 
HETATM   28  C7  UNL     1       1.867  52.418 -16.154  1.00  0.00    -0.010 A 
HETATM   29  C8  UNL     1       3.272  52.826 -16.439  1.00  0.00     0.010 C 
ENDBRANCH  25  26
ENDBRANCH  22  24
ENDBRANCH   1  22
BRANCH  15  30
HETATM   30  O1  UNL     1       0.222  53.554 -28.175  1.00  0.00    -0.395 OA
HETATM   31  H33 UNL     1       1.019  53.456 -28.725  1.00  0.00     0.210 HD
ENDBRANCH  15  30
TORSDOF 4
ENDMDL
