MODEL 1
REMARK minimizedAffinity -8.12649536
REMARK  12 active torsions:
REMARK  status: ('A' for Active; 'I' for Inactive)
REMARK    1  A    between atoms: O1_2  and  C2_3 
REMARK    2  A    between atoms: C3_6  and  C4_7 
REMARK    3  A    between atoms: C4_7  and  C5_8 
REMARK    4  A    between atoms: C6_9  and  C8_11 
REMARK    5  A    between atoms: C8_11  and  C9_12 
REMARK    6  A    between atoms: C10_13  and  C11_14 
REMARK    7  A    between atoms: C13_16  and  C14_17 
REMARK    8  A    between atoms: C14_17  and  C16_19 
REMARK    9  A    between atoms: C16_19  and  O2_20 
REMARK   10  A    between atoms: C16_19  and  C18_22 
REMARK   11  A    between atoms: C24_29  and  O4_30 
REMARK   12  A    between atoms: C25_31  and  O5_32 
ROOT
HETATM    1  C5  UNL     1      -5.713   4.023  12.458  1.00  0.00    -0.018 C 
HETATM    2  C6  UNL     1      -5.052   2.984  11.904  1.00  0.00    -0.084 C 
HETATM    3  C7  UNL     1      -5.710   1.819  11.212  1.00  0.00     0.043 C 
ENDROOT
BRANCH   2   4
HETATM    4  C8  UNL     1      -3.541   2.896  11.997  1.00  0.00     0.060 C 
BRANCH   4   5
HETATM    5  C9  UNL     1      -2.881   4.189  11.603  1.00  0.00    -0.022 C 
HETATM    6  C10 UNL     1      -1.838   4.726  12.258  1.00  0.00     0.003 C 
BRANCH   6   7
HETATM    7  C11 UNL     1      -1.162   5.982  11.933  1.00  0.00    -0.066 C 
HETATM    8  C12 UNL     1      -1.639   7.235  12.625  1.00  0.00     0.048 C 
HETATM    9  C13 UNL     1      -0.167   5.957  11.020  1.00  0.00    -0.013 C 
BRANCH   9  10
HETATM   10  C14 UNL     1       0.704   7.114  10.543  1.00  0.00     0.037 C 
HETATM   11  C15 UNL     1       1.505   7.625  11.748  1.00  0.00     0.017 C 
BRANCH  10  12
HETATM   12  C16 UNL     1       1.612   6.667   9.359  1.00  0.00     0.165 C 
BRANCH  12  13
HETATM   13  O2  UNL     1       1.194   7.409   8.197  1.00  0.00    -0.387 OA
HETATM   14  C17 UNL     1       0.140   8.323   8.463  1.00  0.00     0.202 C 
ENDBRANCH  12  13
BRANCH  12  15
HETATM   15  C18 UNL     1       3.087   6.937   9.629  1.00  0.00     0.110 A 
HETATM   16  C19 UNL     1       3.618   8.296   9.282  1.00  0.00     0.051 C 
HETATM   17  O3  UNL     1       3.963   5.859   9.237  1.00  0.00    -0.367 OA
HETATM   18  C20 UNL     1       3.811   6.055  10.644  1.00  0.00     0.155 A 
HETATM   19  C21 UNL     1       5.050   6.472  11.352  1.00  0.00     0.042 C 
ENDBRANCH  12  15
ENDBRANCH  10  12
ENDBRANCH   9  10
ENDBRANCH   6   7
ENDBRANCH   4   5
ENDBRANCH   2   4
BRANCH   1  20
HETATM   20  C4  UNL     1      -7.197   4.285  12.469  1.00  0.00     0.085 C 
BRANCH  20  21
HETATM   21  C3  UNL     1      -7.582   5.473  13.327  1.00  0.00     0.023 A 
HETATM   22  N1  UNL     1      -8.920   5.637  13.509  1.00  0.00    -0.337 N 
HETATM   23  C2  UNL     1      -9.360   6.641  14.306  1.00  0.00     0.179 A 
ATOM     24  H1  UNL     1      -9.584   5.012  13.052  1.00  0.00     0.168 HD
HETATM   25  C25 UNL     1      -8.505   7.517  14.964  1.00  0.00     0.153 A 
HETATM   26  C24 UNL     1      -7.136   7.332  14.740  1.00  0.00     0.111 A 
HETATM   27  C22 UNL     1      -6.636   6.321  13.914  1.00  0.00    -0.003 A 
HETATM   28  C23 UNL     1      -5.157   6.135  13.741  1.00  0.00     0.053 C 
BRANCH  23  29
HETATM   29  O1  UNL     1     -10.723   6.796  14.444  1.00  0.00    -0.339 OA
HETATM   30  C1  UNL     1     -11.367   7.295  13.275  1.00  0.00     0.211 C 
ENDBRANCH  23  29
BRANCH  25  31
HETATM   31  O5  UNL     1      -8.793   8.561  15.803  1.00  0.00    -0.349 OA
HETATM   32  C26 UNL     1      -9.284   9.760  15.215  1.00  0.00     0.210 C 
ENDBRANCH  25  31
BRANCH  26  33
HETATM   33  O4  UNL     1      -6.248   8.173  15.371  1.00  0.00    -0.357 OA
HETATM   34  H36 UNL     1      -6.802   8.793  15.886  1.00  0.00     0.217 HD
ENDBRANCH  26  33
ENDBRANCH  20  21
ENDBRANCH   1  20
TORSDOF 12
ENDMDL
