MODEL 1
REMARK minimizedAffinity -8.48063374
REMARK CNNscore 0.929800868
REMARK CNNaffinity 6.73933077
REMARK  8 active torsions:
REMARK  status: ('A' for Active; 'I' for Inactive)
REMARK    1  A    between atoms: C3_3  and  C4_4 
REMARK    2  A    between atoms: C4_4  and  O1_5 
REMARK    3  A    between atoms: C6_9  and  C7_10 
REMARK    4  A    between atoms: C7_10  and  O4_12 
REMARK    5  A    between atoms: C7_10  and  C9_13 
REMARK    6  A    between atoms: C9_13  and  O5_14 
REMARK    7  A    between atoms: C12_17  and  O6_18 
REMARK    8  A    between atoms: C27_34  and  O8_35 
ROOT
HETATM    1  C9  UNL     1       0.106  51.331 -11.619  1.00  0.00     0.101 C 
HETATM    2  C10 UNL     1      -0.534  52.697 -12.096  1.00  0.00     0.045 C 
HETATM    3  C11 UNL     1       0.044  53.836 -11.243  1.00  0.00     0.045 C 
HETATM    4  C12 UNL     1       1.411  53.306 -10.839  1.00  0.00     0.100 C 
HETATM    5  C13 UNL     1       1.072  51.827 -10.431  1.00  0.00     0.024 C 
HETATM    6  C14 UNL     1       0.271  51.711  -9.087  1.00  0.00     0.022 C 
HETATM    7  C15 UNL     1       2.422  51.127 -10.206  1.00  0.00     0.016 C 
HETATM    8  C16 UNL     1       3.284  51.842  -9.141  1.00  0.00     0.010 C 
HETATM    9  C17 UNL     1       3.533  53.352  -9.432  1.00  0.00     0.043 C 
HETATM   10  C18 UNL     1       4.406  54.093  -8.341  1.00  0.00     0.046 C 
HETATM   11  C19 UNL     1       4.037  53.703  -6.896  1.00  0.00     0.029 C 
HETATM   12  C20 UNL     1       5.890  53.683  -8.558  1.00  0.00     0.140 C 
HETATM   13  O7  UNL     1       6.253  52.505  -8.610  1.00  0.00    -0.297 OA
HETATM   14  C21 UNL     1       6.923  54.786  -8.699  1.00  0.00     0.080 C 
HETATM   15  C22 UNL     1       6.707  55.819  -7.606  1.00  0.00     0.012 C 
HETATM   16  C23 UNL     1       5.315  56.447  -7.675  1.00  0.00     0.035 C 
HETATM   17  C24 UNL     1       4.344  55.625  -8.496  1.00  0.00    -0.067 C 
HETATM   18  C25 UNL     1       3.531  56.243  -9.373  1.00  0.00    -0.020 C 
HETATM   19  C26 UNL     1       2.549  55.535 -10.258  1.00  0.00     0.069 C 
HETATM   20  C27 UNL     1       2.201  54.111  -9.757  1.00  0.00     0.098 C 
ENDROOT
BRANCH   1  21
HETATM   21  C7  UNL     1       0.697  50.521 -12.861  1.00  0.00     0.113 C 
HETATM   22  C8  UNL     1       1.948  49.705 -12.430  1.00  0.00     0.052 C 
BRANCH  21  23
HETATM   23  C6  UNL     1       1.059  51.352 -14.144  1.00  0.00     0.173 C 
HETATM   24  O3  UNL     1       0.237  50.826 -15.224  1.00  0.00    -0.309 OA
HETATM   25  C5  UNL     1       0.397  51.268 -16.496  1.00  0.00     0.292 C 
HETATM   26  C3  UNL     1       1.626  52.057 -16.789  1.00  0.00     0.042 C 
HETATM   27  O2  UNL     1      -0.419  50.979 -17.362  1.00  0.00    -0.260 OA
HETATM   28  C2  UNL     1       2.659  52.039 -15.916  1.00  0.00    -0.067 C 
HETATM   29  C1  UNL     1       4.001  52.677 -16.153  1.00  0.00     0.044 C 
HETATM   30  C28 UNL     1       2.520  51.347 -14.581  1.00  0.00     0.070 C 
BRANCH  26  31
HETATM   31  C4  UNL     1       1.641  52.723 -18.136  1.00  0.00     0.209 C 
BRANCH  31  32
HETATM   32  O1  UNL     1       0.438  53.465 -18.319  1.00  0.00    -0.396 OA
HETATM   33  H6  UNL     1       0.346  54.072 -17.568  1.00  0.00     0.209 HD
ENDBRANCH  31  32
ENDBRANCH  26  31
ENDBRANCH  21  23
BRANCH  21  34
HETATM   34  O4  UNL     1      -0.285  49.546 -13.278  1.00  0.00    -0.384 OA
HETATM   35  H11 UNL     1       0.083  49.113 -14.079  1.00  0.00     0.210 HD
ENDBRANCH  21  34
ENDBRANCH   1  21
BRANCH   1  36
HETATM   36  O5  UNL     1      -1.018  50.569 -11.137  1.00  0.00    -0.386 OA
HETATM   37  H12 UNL     1      -0.754  50.009 -10.393  1.00  0.00     0.210 HD
ENDBRANCH   1  36
BRANCH   4  38
HETATM   38  O6  UNL     1       2.242  53.366 -12.017  1.00  0.00    -0.386 OA
HETATM   39  H17 UNL     1       2.028  52.644 -12.644  1.00  0.00     0.210 HD
ENDBRANCH   4  38
BRANCH  20  40
HETATM   40  O8  UNL     1       1.420  54.252  -8.561  1.00  0.00    -0.386 OA
HETATM   41  H38 UNL     1       0.811  55.000  -8.677  1.00  0.00     0.210 HD
ENDBRANCH  20  40
TORSDOF 8
ENDMDL
