MODEL 1
REMARK minimizedAffinity -7.98863459
REMARK CNNscore 0.801006198
REMARK CNNaffinity 7.22217798
REMARK  6 active torsions:
REMARK  status: ('A' for Active; 'I' for Inactive)
REMARK    1  A    between atoms: C2_2  and  C3_3 
REMARK    2  A    between atoms: C4_5  and  C5_6 
REMARK    3  A    between atoms: C5_6  and  C6_7 
REMARK    4  A    between atoms: C6_7  and  C7_8 
REMARK    5  A    between atoms: C7_8  and  C9_10 
REMARK    6  A    between atoms: C30_32  and  O3_33 
ROOT
HETATM    1  C9  UNL     1       5.719  55.998  -8.328  1.00  0.00    -0.002 C 
HETATM    2  C10 UNL     1       6.450  54.843  -9.070  1.00  0.00     0.007 C 
HETATM    3  C11 UNL     1       5.378  53.992  -9.776  1.00  0.00     0.015 C 
HETATM    4  C12 UNL     1       4.101  54.851  -9.745  1.00  0.00    -0.010 C 
HETATM    5  C13 UNL     1       4.197  55.860 -10.934  1.00  0.00     0.021 C 
HETATM    6  C14 UNL     1       2.739  54.169  -9.885  1.00  0.00    -0.039 C 
HETATM    7  C15 UNL     1       1.638  54.755  -9.338  1.00  0.00    -0.066 C 
HETATM    8  C16 UNL     1       1.752  56.046  -8.516  1.00  0.00     0.036 C 
HETATM    9  C17 UNL     1       3.162  56.600  -8.218  1.00  0.00     0.015 C 
HETATM   10  C18 UNL     1       4.236  55.510  -8.317  1.00  0.00    -0.029 C 
HETATM   11  C19 UNL     1       4.030  54.499  -7.149  1.00  0.00     0.016 C 
HETATM   12  C20 UNL     1       0.212  54.154  -9.493  1.00  0.00    -0.015 C 
HETATM   13  C21 UNL     1      -0.170  53.533  -8.128  1.00  0.00     0.020 C 
HETATM   14  C22 UNL     1      -0.800  55.268  -9.863  1.00  0.00     0.021 C 
HETATM   15  C23 UNL     1      -2.163  54.799 -10.362  1.00  0.00     0.080 C 
HETATM   16  C24 UNL     1      -2.361  53.302 -10.387  1.00  0.00     0.135 C 
HETATM   17  O2  UNL     1      -3.463  52.829 -10.096  1.00  0.00    -0.297 OA
HETATM   18  C25 UNL     1      -1.213  52.413 -10.877  1.00  0.00     0.018 C 
HETATM   19  C26 UNL     1      -1.323  51.045 -10.169  1.00  0.00     0.023 C 
HETATM   20  C27 UNL     1      -1.451  52.177 -12.382  1.00  0.00     0.023 C 
HETATM   21  C28 UNL     1       0.169  53.119 -10.669  1.00  0.00     0.016 C 
HETATM   22  C29 UNL     1       1.351  52.141 -10.575  1.00  0.00     0.043 C 
HETATM   23  C30 UNL     1       2.687  52.876 -10.664  1.00  0.00     0.148 C 
ENDROOT
BRANCH   1  24
HETATM   24  C7  UNL     1       6.416  56.375  -6.989  1.00  0.00    -0.014 C 
HETATM   25  C8  UNL     1       6.725  55.154  -6.116  1.00  0.00     0.010 C 
BRANCH  24  26
HETATM   26  C6  UNL     1       5.615  57.414  -6.159  1.00  0.00     0.008 C 
BRANCH  26  27
HETATM   27  C5  UNL     1       6.312  57.928  -4.893  1.00  0.00     0.028 C 
BRANCH  27  28
HETATM   28  C4  UNL     1       7.618  58.592  -5.240  1.00  0.00    -0.017 C 
HETATM   29  C2  UNL     1       8.070  59.791  -4.826  1.00  0.00    -0.028 C 
HETATM   30  C1  UNL     1       7.385  60.758  -3.911  1.00  0.00     0.051 C 
BRANCH  29  31
HETATM   31  C3  UNL     1       9.417  60.231  -5.308  1.00  0.00     0.265 C 
HETATM   32  O1  UNL     1      10.389  59.489  -5.404  1.00  0.00    -0.302 OA
ENDBRANCH  29  31
ENDBRANCH  27  28
ENDBRANCH  26  27
ENDBRANCH  24  26
ENDBRANCH   1  24
BRANCH  23  33
HETATM   33  O3  UNL     1       2.952  53.175 -12.031  1.00  0.00    -0.391 OA
HETATM   34  H46 UNL     1       3.038  52.330 -12.501  1.00  0.00     0.210 HD
ENDBRANCH  23  33
TORSDOF 6
ENDMDL
