MODEL 1
REMARK minimizedAffinity -8.73457718
REMARK CNNscore 0.413154691
REMARK CNNaffinity 6.88194656
REMARK  9 active torsions:
REMARK  status: ('A' for Active; 'I' for Inactive)
REMARK    1  A    between atoms: C3_3  and  O1_4 
REMARK    2  A    between atoms: N1_14  and  O2_16 
REMARK    3  A    between atoms: O2_16  and  C13_17 
REMARK    4  A    between atoms: C13_17  and  C14_18 
REMARK       I    between atoms: C14_18  and  N2_20 
REMARK    5  A    between atoms: N2_20  and  C15_21 
REMARK    6  A    between atoms: C15_21  and  C16_22 
REMARK    7  A    between atoms: C15_21  and  C18_26 
REMARK    8  A    between atoms: C16_22  and  C17_23 
REMARK    9  A    between atoms: C17_23  and  O5_25 
ROOT
HETATM    1  C1  UNL     1      -7.836   6.886  13.060  1.00  0.00     0.015 C 
HETATM    2  C2  UNL     1      -6.852   6.393  13.545  1.00  0.00    -0.078 C 
HETATM    3  C3  UNL     1      -5.665   5.770  14.148  1.00  0.00     0.128 C 
HETATM    4  C4  UNL     1      -5.589   6.060  15.644  1.00  0.00     0.052 C 
HETATM    5  C5  UNL     1      -4.147   5.735  15.999  1.00  0.00     0.010 C 
HETATM    6  C6  UNL     1      -3.293   6.166  14.785  1.00  0.00     0.002 C 
HETATM    7  C7  UNL     1      -2.501   7.460  15.104  1.00  0.00    -0.004 C 
HETATM    8  C8  UNL     1      -1.317   7.686  14.132  1.00  0.00     0.010 C 
HETATM    9  C9  UNL     1      -0.950   9.160  13.940  1.00  0.00     0.035 C 
HETATM   10  C10 UNL     1      -1.161   9.908  15.228  1.00  0.00    -0.069 C 
HETATM   11  C11 UNL     1      -0.115  10.374  15.931  1.00  0.00     0.030 C 
HETATM   12  C12 UNL     1      -0.286  11.004  17.266  1.00  0.00     0.032 C 
HETATM   13  N1  UNL     1       0.773  11.506  17.838  1.00  0.00    -0.271 N 
ATOM     14  H1  UNL     1       1.713  11.462  17.444  1.00  0.00     0.194 HD
HETATM   15  C25 UNL     1      -1.673  11.033  17.880  1.00  0.00     0.060 C 
HETATM   16  C26 UNL     1      -2.594   9.980  17.267  1.00  0.00     0.020 C 
HETATM   17  C27 UNL     1      -2.608   9.980  15.710  1.00  0.00    -0.016 C 
HETATM   18  C28 UNL     1      -3.240  11.304  15.226  1.00  0.00     0.020 C 
HETATM   19  C29 UNL     1      -3.420   8.701  15.227  1.00  0.00     0.002 C 
HETATM   20  C30 UNL     1      -4.317   8.869  13.981  1.00  0.00     0.007 C 
HETATM   21  C31 UNL     1      -4.302   7.707  12.989  1.00  0.00     0.014 C 
HETATM   22  C32 UNL     1      -4.285   6.269  13.573  1.00  0.00     0.003 C 
HETATM   23  C33 UNL     1      -3.810   5.340  12.426  1.00  0.00     0.020 C 
ENDROOT
BRANCH   3  24
HETATM   24  O1  UNL     1      -5.820   4.354  13.996  1.00  0.00    -0.377 OA
HETATM   25  H2  UNL     1      -5.046   3.914  14.376  1.00  0.00     0.211 HD
ENDBRANCH   3  24
BRANCH  13  26
HETATM   26  O2  UNL     1       0.459  12.114  19.062  1.00  0.00    -0.271 OA
BRANCH  26  27
HETATM   27  C13 UNL     1       0.427  11.121  20.083  1.00  0.00     0.303 C 
BRANCH  27  28
HETATM   28  C14 UNL     1       1.778  10.424  20.186  1.00  0.00     0.244 C 
HETATM   29  O3  UNL     1       2.229   9.719  19.288  1.00  0.00    -0.271 OA
HETATM   30  N2  UNL     1       2.476  10.717  21.339  1.00  0.00    -0.354 N 
HETATM   31  H16 UNL     1       2.013  11.307  22.031  1.00  0.00     0.162 HD
BRANCH  30  32
HETATM   32  C15 UNL     1       3.817  10.217  21.635  1.00  0.00     0.098 C 
BRANCH  32  33
HETATM   33  C16 UNL     1       3.816   9.533  23.011  1.00  0.00     0.135 C 
BRANCH  33  34
HETATM   34  C17 UNL     1       2.594   8.698  23.269  1.00  0.00     0.141 C 
HETATM   35  O4  UNL     1       2.023   8.575  24.339  1.00  0.00    -0.650 OA
BRANCH  34  36
HETATM   36  O5  UNL     1       2.160   8.032  22.181  1.00  0.00    -0.776 OA
HETATM   37  H20 UNL     1       1.388   7.523  22.512  1.00  0.00     0.167 HD
ENDBRANCH  34  36
ENDBRANCH  33  34
ENDBRANCH  32  33
BRANCH  32  38
HETATM   38  C18 UNL     1       4.882  11.336  21.476  1.00  0.00     0.014 C 
HETATM   39  C19 UNL     1       4.692  12.139  20.172  1.00  0.00     0.033 C 
HETATM   40  C20 UNL     1       5.163  13.586  20.285  1.00  0.00     0.169 C 
HETATM   41  O6  UNL     1       6.298  13.671  21.136  1.00  0.00    -0.381 OA
HETATM   42  C21 UNL     1       6.015  13.374  22.511  1.00  0.00     0.054 C 
HETATM   43  C22 UNL     1       7.329  12.846  23.104  1.00  0.00     0.045 C 
HETATM   44  C23 UNL     1       5.636  14.671  23.234  1.00  0.00     0.045 C 
HETATM   45  C24 UNL     1       4.895  12.318  22.663  1.00  0.00     0.044 C 
ENDBRANCH  32  38
ENDBRANCH  30  32
ENDBRANCH  27  28
ENDBRANCH  26  27
ENDBRANCH  13  26
TORSDOF 9
ENDMDL
