MODEL 1
REMARK minimizedAffinity -10.4671297
REMARK  6 active torsions:
REMARK  status: ('A' for Active; 'I' for Inactive)
REMARK    1  A    between atoms: O1_2  and  C2_3 
REMARK    2  A    between atoms: C7_9  and  C8_10 
REMARK    3  A    between atoms: C8_10  and  C9_11 
REMARK    4  A    between atoms: C9_11  and  N2_12 
REMARK       I    between atoms: N2_12  and  C10_13 
REMARK    5  A    between atoms: C10_13  and  C11_15 
REMARK    6  A    between atoms: C16_21  and  C17_22 
ROOT
HETATM    1  C11 UNL     1      -3.953  48.510 -24.790  1.00  0.00     0.034 A 
HETATM    2  C12 UNL     1      -2.809  48.664 -25.586  1.00  0.00     0.020 A 
HETATM    3  C13 UNL     1      -2.908  48.612 -26.978  1.00  0.00     0.040 A 
HETATM    4  C14 UNL     1      -4.149  48.395 -27.574  1.00  0.00     0.103 A 
HETATM    5  O3  UNL     1      -4.191  48.353 -28.941  1.00  0.00    -0.303 OA
HETATM    6  C15 UNL     1      -5.417  48.109 -29.571  1.00  0.00     0.144 A 
HETATM    7  C16 UNL     1      -5.406  48.052 -30.915  1.00  0.00     0.054 C 
HETATM    8  C23 UNL     1      -6.671  47.929 -28.754  1.00  0.00     0.280 A 
HETATM    9  O4  UNL     1      -7.788  47.736 -29.222  1.00  0.00    -0.265 OA
HETATM   10  N3  UNL     1      -6.511  47.996 -27.397  1.00  0.00    -0.319 N 
HETATM   11  C24 UNL     1      -5.283  48.224 -26.785  1.00  0.00     0.070 A 
HETATM   12  C25 UNL     1      -5.197  48.277 -25.392  1.00  0.00     0.049 A 
HETATM   13  H20 UNL     1      -7.354  47.863 -26.854  1.00  0.00     0.169 HD
ENDROOT
BRANCH   1  14
HETATM   14  C10 UNL     1      -3.797  48.570 -23.312  1.00  0.00     0.251 C 
HETATM   15  N2  UNL     1      -2.839  49.440 -22.832  1.00  0.00    -0.357 N 
HETATM   16  H12 UNL     1      -2.168  49.842 -23.469  1.00  0.00     0.162 HD
HETATM   17  O2  UNL     1      -4.475  47.845 -22.594  1.00  0.00    -0.268 OA
BRANCH  15  18
HETATM   18  C9  UNL     1      -2.549  49.524 -21.410  1.00  0.00     0.127 C 
BRANCH  18  19
HETATM   19  C8  UNL     1      -1.058  49.351 -21.105  1.00  0.00     0.060 C 
BRANCH  19  20
HETATM   20  C7  UNL     1      -0.468  50.564 -20.458  1.00  0.00    -0.029 A 
HETATM   21  C6  UNL     1      -0.333  50.791 -19.103  1.00  0.00     0.096 A 
HETATM   22  N1  UNL     1       0.252  52.017 -18.928  1.00  0.00    -0.365 N 
HETATM   23  C5  UNL     1       0.510  52.599 -20.147  1.00  0.00     0.043 A 
HETATM   24  H6  UNL     1       0.467  52.439 -18.036  1.00  0.00     0.165 HD
HETATM   25  C4  UNL     1       1.094  53.832 -20.453  1.00  0.00     0.033 A 
HETATM   26  C26 UNL     1       0.066  51.713 -21.127  1.00  0.00     0.001 A 
HETATM   27  C3  UNL     1       1.230  54.172 -21.807  1.00  0.00     0.039 A 
HETATM   28  C2  UNL     1       0.797  53.311 -22.815  1.00  0.00     0.069 A 
HETATM   29  C27 UNL     1       0.215  52.081 -22.480  1.00  0.00     0.051 A 
BRANCH  28  30
HETATM   30  O1  UNL     1       0.884  53.547 -24.161  1.00  0.00    -0.356 OA
HETATM   31  C1  UNL     1       0.962  52.411 -25.012  1.00  0.00     0.210 C 
ENDBRANCH  28  30
ENDBRANCH  19  20
ENDBRANCH  18  19
ENDBRANCH  15  18
ENDBRANCH   1  14
BRANCH   7  32
HETATM   32  C17 UNL     1      -6.534  47.803 -31.813  1.00  0.00    -0.032 A 
HETATM   33  C18 UNL     1      -6.311  47.662 -33.188  1.00  0.00     0.011 A 
HETATM   34  C19 UNL     1      -7.380  47.413 -34.052  1.00  0.00     0.003 A 
HETATM   35  C20 UNL     1      -8.674  47.301 -33.545  1.00  0.00     0.024 A 
HETATM   36  C21 UNL     1      -8.895  47.441 -32.175  1.00  0.00     0.034 A 
HETATM   37 CL1  UNL     1     -10.493  47.299 -31.551  1.00  0.00    -0.084 Cl
HETATM   38  C22 UNL     1      -7.832  47.689 -31.307  1.00  0.00     0.035 A 
ENDBRANCH   7  32
TORSDOF 6
ENDMDL
