MODEL 1
REMARK minimizedAffinity -9.46144295
REMARK CNNscore 0.81328243
REMARK CNNaffinity 7.56501436
REMARK  12 active torsions:
REMARK  status: ('A' for Active; 'I' for Inactive)
REMARK    1  A    between atoms: C2_2  and  C4_4 
REMARK    2  A    between atoms: C4_4  and  C6_6 
REMARK    3  A    between atoms: C7_8  and  C8_9 
REMARK    4  A    between atoms: C8_9  and  O2_11 
REMARK    5  A    between atoms: C8_9  and  C10_12 
REMARK    6  A    between atoms: C13_15  and  O3_16 
REMARK    7  A    between atoms: C24_28  and  O5_29 
REMARK    8  A    between atoms: C25_30  and  O6_31 
REMARK    9  A    between atoms: C29_35  and  C30_36 
REMARK   10  A    between atoms: C30_36  and  C31_37 
REMARK   11  A    between atoms: C31_37  and  C32_38 
REMARK   12  A    between atoms: C36_42  and  O7_43 
ROOT
HETATM    1  C10 UNL     1      -1.399  49.498 -16.513  1.00  0.00     0.034 C 
HETATM    2  C11 UNL     1      -2.459  50.501 -15.949  1.00  0.00     0.012 C 
HETATM    3  C12 UNL     1      -3.368  50.918 -17.122  1.00  0.00     0.044 C 
HETATM    4  C13 UNL     1      -3.006  49.925 -18.223  1.00  0.00     0.090 C 
HETATM    5  C14 UNL     1      -3.414  50.116 -19.659  1.00  0.00    -0.037 C 
HETATM    6  C15 UNL     1      -3.968  51.249 -20.111  1.00  0.00     0.057 C 
HETATM    7  C16 UNL     1      -4.171  51.485 -21.549  1.00  0.00     0.155 C 
HETATM    8  O4  UNL     1      -4.656  52.559 -21.904  1.00  0.00    -0.293 OA
HETATM    9  C17 UNL     1      -3.721  50.430 -22.548  1.00  0.00     0.075 C 
HETATM   10  C18 UNL     1      -4.640  50.428 -23.797  1.00  0.00     0.029 C 
HETATM   11  C19 UNL     1      -4.216  49.336 -24.815  1.00  0.00     0.008 C 
HETATM   12  C20 UNL     1      -2.892  48.670 -24.472  1.00  0.00     0.001 C 
HETATM   13  C21 UNL     1      -2.816  48.153 -23.027  1.00  0.00     0.011 C 
HETATM   14  C22 UNL     1      -3.663  48.983 -21.999  1.00  0.00    -0.019 C 
HETATM   15  C23 UNL     1      -5.120  48.349 -21.988  1.00  0.00     0.045 C 
HETATM   16  C24 UNL     1      -6.273  49.346 -22.133  1.00  0.00     0.148 C 
HETATM   17  C25 UNL     1      -6.120  50.269 -23.364  1.00  0.00     0.151 C 
HETATM   18  C26 UNL     1      -3.064  48.913 -20.534  1.00  0.00     0.027 C 
HETATM   19  C27 UNL     1      -1.551  48.615 -20.401  1.00  0.00     0.011 C 
HETATM   20  C28 UNL     1      -0.994  48.600 -18.956  1.00  0.00     0.014 C 
HETATM   21  C29 UNL     1      -1.444  49.789 -18.077  1.00  0.00     0.002 C 
ENDROOT
BRANCH   1  22
HETATM   22  C8  UNL     1      -0.063  49.514 -15.700  1.00  0.00     0.087 C 
HETATM   23  C9  UNL     1       0.277  48.124 -15.136  1.00  0.00     0.049 C 
BRANCH  22  24
HETATM   24  C7  UNL     1      -0.186  50.470 -14.516  1.00  0.00     0.185 A 
HETATM   25  C6  UNL     1       0.989  50.898 -13.641  1.00  0.00     0.158 A 
HETATM   26  O1  UNL     1       0.453  51.744 -14.668  1.00  0.00    -0.372 OA
BRANCH  25  27
HETATM   27  C4  UNL     1       0.769  51.415 -12.235  1.00  0.00     0.017 C 
HETATM   28  C5  UNL     1       0.099  50.318 -11.394  1.00  0.00     0.013 C 
BRANCH  27  29
HETATM   29  C2  UNL     1      -0.078  52.721 -12.245  1.00  0.00    -0.016 C 
HETATM   30  C1  UNL     1       0.548  53.820 -11.373  1.00  0.00     0.010 C 
HETATM   31  C3  UNL     1      -1.518  52.481 -11.777  1.00  0.00     0.010 C 
ENDBRANCH  27  29
ENDBRANCH  25  27
ENDBRANCH  22  24
BRANCH  22  32
HETATM   32  O2  UNL     1       1.019  49.917 -16.543  1.00  0.00    -0.387 OA
HETATM   33  H17 UNL     1       1.840  49.837 -16.034  1.00  0.00     0.210 HD
ENDBRANCH  22  32
ENDBRANCH   1  22
BRANCH  21  34
HETATM   34  C30 UNL     1      -0.601  51.096 -18.369  1.00  0.00     0.018 C 
BRANCH  34  35
HETATM   35  C31 UNL     1      -1.100  52.252 -19.254  1.00  0.00     0.039 C 
BRANCH  35  36
HETATM   36  C32 UNL     1      -0.413  52.539 -20.574  1.00  0.00    -0.056 A 
HETATM   37  C33 UNL     1      -0.590  51.765 -21.728  1.00  0.00     0.007 A 
HETATM   38  C34 UNL     1       0.101  52.069 -22.907  1.00  0.00     0.003 A 
HETATM   39  C35 UNL     1       0.989  53.142 -22.948  1.00  0.00     0.036 A 
HETATM   40  C36 UNL     1       1.193  53.896 -21.801  1.00  0.00     0.066 A 
HETATM   41  C37 UNL     1       0.515  53.595 -20.623  1.00  0.00     0.043 A 
BRANCH  40  42
HETATM   42  O7  UNL     1       2.055  54.952 -21.786  1.00  0.00    -0.361 OA
HETATM   43  H51 UNL     1       2.462  55.028 -22.664  1.00  0.00     0.217 HD
ENDBRANCH  40  42
ENDBRANCH  35  36
ENDBRANCH  34  35
ENDBRANCH  21  34
BRANCH   4  44
HETATM   44  O3  UNL     1      -3.649  48.691 -17.829  1.00  0.00    -0.384 OA
HETATM   45  H23 UNL     1      -4.610  48.839 -17.873  1.00  0.00     0.211 HD
ENDBRANCH   4  44
BRANCH  16  46
HETATM   46  O5  UNL     1      -7.509  48.631 -22.199  1.00  0.00    -0.393 OA
HETATM   47  H36 UNL     1      -7.760  48.655 -23.149  1.00  0.00     0.210 HD
ENDBRANCH  16  46
BRANCH  17  48
HETATM   48  O6  UNL     1      -6.939  49.772 -24.434  1.00  0.00    -0.393 OA
HETATM   49  H38 UNL     1      -6.892  50.433 -25.151  1.00  0.00     0.210 HD
ENDBRANCH  17  48
TORSDOF 12
ENDMDL
