MODEL 1
REMARK minimizedAffinity -7.78643465
REMARK CNNscore 0.628688991
REMARK CNNaffinity 7.05010414
REMARK  12 active torsions:
REMARK  status: ('A' for Active; 'I' for Inactive)
REMARK    1  A    between atoms: C4_4  and  C5_5 
REMARK    2  A    between atoms: C5_5  and  O1_6 
REMARK    3  A    between atoms: C5_5  and  C6_7 
REMARK    4  A    between atoms: C6_7  and  C7_8 
REMARK    5  A    between atoms: C9_11  and  C10_12 
REMARK    6  A    between atoms: C18_20  and  O3_21 
REMARK    7  A    between atoms: O3_21  and  C19_22 
REMARK    8  A    between atoms: C20_24  and  C21_25 
REMARK    9  A    between atoms: C21_25  and  O5_26 
REMARK   10  A    between atoms: C22_27  and  O6_28 
REMARK   11  A    between atoms: C23_29  and  O7_30 
REMARK   12  A    between atoms: C24_31  and  O8_32 
ROOT
HETATM    1  C10 UNL     1       6.374  53.803  -7.464  1.00  0.00     0.029 C 
HETATM    2  C11 UNL     1       6.636  53.863  -9.004  1.00  0.00     0.009 C 
HETATM    3  C12 UNL     1       5.521  54.543  -9.823  1.00  0.00     0.007 C 
HETATM    4  C13 UNL     1       4.174  54.419  -9.104  1.00  0.00     0.003 C 
HETATM    5  C14 UNL     1       2.860  54.453  -9.985  1.00  0.00    -0.035 C 
HETATM    6  C15 UNL     1       2.660  55.829 -10.653  1.00  0.00     0.016 C 
HETATM    7  C16 UNL     1       2.963  53.392 -11.124  1.00  0.00     0.012 C 
HETATM    8  C17 UNL     1       1.643  53.107 -11.845  1.00  0.00     0.034 C 
HETATM    9  C18 UNL     1       0.518  52.698 -10.890  1.00  0.00     0.133 C 
HETATM   10  C25 UNL     1       0.303  53.727  -9.731  1.00  0.00    -0.017 C 
HETATM   11  C26 UNL     1      -0.688  53.079  -8.722  1.00  0.00     0.018 C 
HETATM   12  C27 UNL     1      -0.391  55.009 -10.239  1.00  0.00     0.018 C 
HETATM   13  C28 UNL     1       1.687  53.988  -9.035  1.00  0.00     0.004 C 
HETATM   14  C29 UNL     1       1.623  54.817  -7.735  1.00  0.00     0.007 C 
HETATM   15  C30 UNL     1       2.955  54.803  -6.959  1.00  0.00     0.011 C 
HETATM   16  C31 UNL     1       4.181  55.289  -7.786  1.00  0.00    -0.029 C 
HETATM   17  C32 UNL     1       3.960  56.804  -8.040  1.00  0.00     0.016 C 
HETATM   18  C33 UNL     1       5.584  55.095  -6.993  1.00  0.00     0.004 C 
HETATM   19  C34 UNL     1       5.441  55.214  -5.465  1.00  0.00     0.190 C 
HETATM   20  O9  UNL     1       6.747  55.493  -4.953  1.00  0.00    -0.321 OA
HETATM   21  C35 UNL     1       7.447  56.156  -5.916  1.00  0.00     0.259 C 
HETATM   22  O10 UNL     1       8.571  56.605  -5.773  1.00  0.00    -0.265 OA
HETATM   23  C36 UNL     1       6.599  56.275  -7.152  1.00  0.00     0.124 C 
ENDROOT
BRANCH   9  24
HETATM   24  O3  UNL     1      -0.722  52.531 -11.587  1.00  0.00    -0.352 OA
BRANCH  24  25
HETATM   25  C19 UNL     1      -0.730  51.498 -12.566  1.00  0.00     0.292 C 
HETATM   26  O4  UNL     1      -1.638  51.814 -13.628  1.00  0.00    -0.348 OA
HETATM   27  C20 UNL     1      -3.029  51.741 -13.288  1.00  0.00     0.179 C 
HETATM   28  C22 UNL     1      -3.403  50.353 -12.731  1.00  0.00     0.180 C 
HETATM   29  C23 UNL     1      -2.505  49.943 -11.554  1.00  0.00     0.183 C 
HETATM   30  C24 UNL     1      -1.022  50.122 -11.923  1.00  0.00     0.204 C 
BRANCH  27  31
HETATM   31  C21 UNL     1      -3.501  52.909 -12.413  1.00  0.00     0.198 C 
BRANCH  31  32
HETATM   32  O5  UNL     1      -4.284  53.817 -13.191  1.00  0.00    -0.398 OA
HETATM   33  H34 UNL     1      -4.524  54.549 -12.594  1.00  0.00     0.209 HD
ENDBRANCH  31  32
ENDBRANCH  27  31
BRANCH  28  34
HETATM   34  O6  UNL     1      -3.229  49.368 -13.772  1.00  0.00    -0.390 OA
HETATM   35  H36 UNL     1      -3.825  49.617 -14.504  1.00  0.00     0.210 HD
ENDBRANCH  28  34
BRANCH  29  36
HETATM   36  O7  UNL     1      -2.841  50.654 -10.365  1.00  0.00    -0.390 OA
HETATM   37  H38 UNL     1      -3.745  50.390 -10.113  1.00  0.00     0.210 HD
ENDBRANCH  29  36
BRANCH  30  38
HETATM   38  O8  UNL     1      -0.633  49.076 -12.839  1.00  0.00    -0.388 OA
HETATM   39  H40 UNL     1      -1.340  49.039 -13.520  1.00  0.00     0.210 HD
ENDBRANCH  30  38
ENDBRANCH  24  25
ENDBRANCH   9  24
BRANCH   1  40
HETATM   40  C9  UNL     1       5.784  52.445  -7.112  1.00  0.00     0.162 A 
HETATM   41  C7  UNL     1       6.451  51.499  -6.105  1.00  0.00     0.087 A 
HETATM   42  C8  UNL     1       7.601  51.920  -5.232  1.00  0.00     0.049 C 
HETATM   43  O2  UNL     1       5.258  52.243  -5.805  1.00  0.00    -0.369 OA
BRANCH  41  44
HETATM   44  C6  UNL     1       6.204  50.012  -6.256  1.00  0.00     0.076 C 
BRANCH  44  45
HETATM   45  C5  UNL     1       7.060  49.324  -7.333  1.00  0.00     0.144 C 
BRANCH  45  46
HETATM   46  C4  UNL     1       8.533  49.649  -7.274  1.00  0.00     0.006 C 
HETATM   47  C2  UNL     1       9.609  49.018  -7.790  1.00  0.00    -0.089 C 
HETATM   48  C1  UNL     1      10.997  49.549  -7.531  1.00  0.00     0.042 C 
HETATM   49  C3  UNL     1       9.577  47.809  -8.682  1.00  0.00     0.042 C 
ENDBRANCH  45  46
BRANCH  45  50
HETATM   50  O1  UNL     1       6.507  49.539  -8.625  1.00  0.00    -0.392 OA
HETATM   51  H9  UNL     1       7.117  49.118  -9.254  1.00  0.00     0.210 HD
ENDBRANCH  45  50
ENDBRANCH  44  45
ENDBRANCH  41  44
ENDBRANCH   1  40
TORSDOF 12
ENDMDL
