MODEL 1
REMARK minimizedAffinity -8.81305313
REMARK CNNscore 0.541835845
REMARK CNNaffinity 6.18361807
REMARK  4 active torsions:
REMARK  status: ('A' for Active; 'I' for Inactive)
REMARK    1  A    between atoms: C4_4  and  C5_5 
REMARK    2  A    between atoms: C22_22  and  C23_23 
REMARK    3  A    between atoms: C23_23  and  O2_25 
REMARK    4  A    between atoms: C28_30  and  O3_31 
ROOT
HETATM    1  C5  UNL     1       1.967   7.585  11.322  1.00  0.00     0.032 C 
HETATM    2  C6  UNL     1       0.657   8.050  12.029  1.00  0.00     0.014 C 
HETATM    3  C7  UNL     1      -0.482   8.521  11.105  1.00  0.00     0.007 C 
HETATM    4  C8  UNL     1      -1.726   8.962  11.879  1.00  0.00     0.007 C 
HETATM    5  C9  UNL     1      -2.177   7.935  12.934  1.00  0.00     0.007 C 
HETATM    6  C10 UNL     1      -3.541   8.281  13.613  1.00  0.00    -0.018 C 
HETATM    7  C11 UNL     1      -3.553   9.646  14.341  1.00  0.00     0.020 C 
HETATM    8  C12 UNL     1      -4.781   8.274  12.737  1.00  0.00    -0.020 C 
HETATM    9  C13 UNL     1      -5.818   7.676  13.353  1.00  0.00    -0.021 C 
HETATM   10  C14 UNL     1      -5.431   7.058  14.684  1.00  0.00    -0.026 C 
HETATM   11  C15 UNL     1      -5.920   7.868  15.886  1.00  0.00     0.019 C 
HETATM   12  C16 UNL     1      -5.986   5.628  14.794  1.00  0.00     0.019 C 
HETATM   13  C17 UNL     1      -3.902   7.039  14.475  1.00  0.00     0.009 C 
HETATM   14  C18 UNL     1      -2.939   6.834  15.629  1.00  0.00     0.007 C 
HETATM   15  C19 UNL     1      -1.540   6.541  15.045  1.00  0.00     0.011 C 
HETATM   16  C20 UNL     1      -1.017   7.561  13.962  1.00  0.00    -0.021 C 
HETATM   17  C21 UNL     1      -0.532   8.803  14.768  1.00  0.00     0.017 C 
HETATM   18  C22 UNL     1       0.217   6.971  13.104  1.00  0.00     0.057 C 
HETATM   19  C24 UNL     1       1.474   6.586  13.972  1.00  0.00     0.023 C 
HETATM   20  C25 UNL     1       2.688   7.499  13.807  1.00  0.00     0.022 C 
HETATM   21  C26 UNL     1       3.156   7.651  12.338  1.00  0.00     0.060 C 
HETATM   22  C27 UNL     1       4.242   6.644  11.962  1.00  0.00     0.081 C 
HETATM   23  C28 UNL     1       5.507   7.324  12.421  1.00  0.00     0.267 C 
HETATM   24  O4  UNL     1       5.290   8.709  12.225  1.00  0.00    -0.289 OA
HETATM   25  C29 UNL     1       3.949   8.953  12.275  1.00  0.00     0.270 C 
HETATM   26  O5  UNL     1       3.472  10.077  12.308  1.00  0.00    -0.264 OA
ENDROOT
BRANCH   1  27
HETATM   27  C4  UNL     1       2.253   8.312  10.020  1.00  0.00    -0.018 C 
HETATM   28  C2  UNL     1       2.596   7.791   8.824  1.00  0.00    -0.091 C 
HETATM   29  C1  UNL     1       2.811   8.697   7.637  1.00  0.00     0.042 C 
HETATM   30  C3  UNL     1       2.787   6.332   8.515  1.00  0.00     0.042 C 
ENDBRANCH   1  27
BRANCH  23  31
HETATM   31  O3  UNL     1       6.633   6.884  11.692  1.00  0.00    -0.371 OA
HETATM   32  H42 UNL     1       6.448   7.069  10.756  1.00  0.00     0.212 HD
ENDBRANCH  23  31
BRANCH  18  33
HETATM   33  C23 UNL     1      -0.201   5.613  12.467  1.00  0.00     0.149 C 
HETATM   34  O1  UNL     1      -0.113   4.514  12.997  1.00  0.00    -0.649 OA
BRANCH  33  35
HETATM   35  O2  UNL     1      -0.695   5.670  11.224  1.00  0.00    -0.776 OA
HETATM   36  H34 UNL     1      -0.925   4.739  11.014  1.00  0.00     0.167 HD
ENDBRANCH  33  35
ENDBRANCH  18  33
TORSDOF 4
ENDMDL
