MODEL 1
REMARK minimizedAffinity -8.15266705
REMARK CNNscore 0.580332279
REMARK CNNaffinity 7.19973707
REMARK  15 active torsions:
REMARK  status: ('A' for Active; 'I' for Inactive)
REMARK    1  A    between atoms: C4_5  and  O2_6 
REMARK    2  A    between atoms: C7_10  and  O4_11 
REMARK    3  A    between atoms: O4_11  and  C8_12 
REMARK    4  A    between atoms: C8_12  and  C9_14 
REMARK    5  A    between atoms: C9_14  and  C11_16 
REMARK    6  A    between atoms: C11_16  and  O6_17 
REMARK    7  A    between atoms: C11_16  and  C12_18 
REMARK    8  A    between atoms: C14_20  and  C15_21 
REMARK    9  A    between atoms: C15_21  and  C16_22 
REMARK   10  A    between atoms: C15_21  and  C17_24 
REMARK   11  A    between atoms: C16_22  and  O7_23 
REMARK   12  A    between atoms: C17_24  and  C18_25 
REMARK   13  A    between atoms: C18_25  and  C19_26 
REMARK   14  A    between atoms: C19_26  and  C20_27 
REMARK   15  A    between atoms: C20_27  and  C21_28 
ROOT
HETATM    1  O4  UNL     1      -0.244   7.329  11.737  1.00  0.00    -0.312 OA
ENDROOT
BRANCH   1   2
HETATM    2  C7  UNL     1       0.481   8.452  11.210  1.00  0.00     0.170 C 
HETATM    3  C6  UNL     1       1.963   8.131  11.237  1.00  0.00     0.127 A 
HETATM    4  C5  UNL     1       2.794   8.517  12.447  1.00  0.00     0.223 A 
HETATM    5  O3  UNL     1       2.763   9.329  11.260  1.00  0.00    -0.360 OA
HETATM    6  C27 UNL     1       2.482   7.058  10.274  1.00  0.00    -0.003 C 
HETATM    7  C4  UNL     1       4.124   7.892  12.750  1.00  0.00     0.199 C 
HETATM    8  O1  UNL     1       5.128   8.909  12.817  1.00  0.00    -0.348 OA
HETATM    9  C30 UNL     1       4.611   6.857  11.721  1.00  0.00     0.082 C 
HETATM   10  C3  UNL     1       6.391   8.283  12.566  1.00  0.00     0.205 C 
HETATM   11  C2  UNL     1       6.101   7.076  11.742  1.00  0.00    -0.056 C 
HETATM   12  C1  UNL     1       7.018   6.325  11.116  1.00  0.00     0.017 C 
HETATM   13  C29 UNL     1       4.041   7.052  10.304  1.00  0.00     0.027 C 
HETATM   14  C25 UNL     1       1.982   7.414   8.830  1.00  0.00    -0.007 C 
HETATM   15  C28 UNL     1       1.991   5.661  10.722  1.00  0.00     0.019 C 
HETATM   16  C24 UNL     1       0.460   7.678   8.788  1.00  0.00     0.007 C 
HETATM   17  C26 UNL     1       2.346   6.377   7.762  1.00  0.00     0.011 C 
HETATM   18  C23 UNL     1       0.048   8.770   9.773  1.00  0.00     0.036 C 
BRANCH   7  19
HETATM   19  O2  UNL     1       4.055   7.278  14.035  1.00  0.00    -0.363 OA
HETATM   20  H5  UNL     1       3.970   8.028  14.648  1.00  0.00     0.213 HD
ENDBRANCH   7  19
ENDBRANCH   1   2
BRANCH   1  21
HETATM   21  C8  UNL     1      -1.265   7.621  12.590  1.00  0.00     0.266 C 
HETATM   22  O5  UNL     1      -2.102   8.492  12.406  1.00  0.00    -0.265 OA
BRANCH  21  23
HETATM   23  C9  UNL     1      -1.244   6.677  13.774  1.00  0.00     0.114 C 
HETATM   24  C10 UNL     1       0.086   5.921  13.797  1.00  0.00     0.023 C 
BRANCH  23  25
HETATM   25  C11 UNL     1      -2.501   5.785  13.789  1.00  0.00     0.159 C 
BRANCH  25  26
HETATM   26  O6  UNL     1      -2.617   5.174  15.083  1.00  0.00    -0.390 OA
HETATM   27  H13 UNL     1      -1.758   4.776  15.298  1.00  0.00     0.210 HD
ENDBRANCH  25  26
BRANCH  25  28
HETATM   28  C12 UNL     1      -2.583   4.710  12.709  1.00  0.00    -0.058 C 
HETATM   29  C13 UNL     1      -1.767   4.978  11.468  1.00  0.00     0.046 C 
HETATM   30  C14 UNL     1      -3.328   3.588  12.831  1.00  0.00    -0.015 C 
BRANCH  30  31
HETATM   31  C15 UNL     1      -3.409   2.434  11.841  1.00  0.00     0.032 C 
BRANCH  31  32
HETATM   32  C16 UNL     1      -2.001   2.024  11.369  1.00  0.00     0.172 C 
BRANCH  32  33
HETATM   33  O7  UNL     1      -1.873   2.083   9.953  1.00  0.00    -0.400 OA
HETATM   34  H21 UNL     1      -1.672   3.007   9.725  1.00  0.00     0.209 HD
ENDBRANCH  32  33
ENDBRANCH  31  32
BRANCH  31  35
HETATM   35  C17 UNL     1      -4.341   2.849  10.683  1.00  0.00     0.010 C 
BRANCH  35  36
HETATM   36  C18 UNL     1      -5.810   3.086  11.060  1.00  0.00     0.001 C 
BRANCH  36  37
HETATM   37  C19 UNL     1      -6.434   1.966  11.905  1.00  0.00     0.000 C 
BRANCH  37  38
HETATM   38  C20 UNL     1      -7.668   2.418  12.694  1.00  0.00    -0.000 C 
BRANCH  38  39
HETATM   39  C21 UNL     1      -7.280   3.370  13.826  1.00  0.00    -0.005 C 
HETATM   40  C22 UNL     1      -7.777   4.783  13.561  1.00  0.00     0.005 C 
ENDBRANCH  38  39
ENDBRANCH  37  38
ENDBRANCH  36  37
ENDBRANCH  35  36
ENDBRANCH  31  35
ENDBRANCH  30  31
ENDBRANCH  25  28
ENDBRANCH  23  25
ENDBRANCH  21  23
ENDBRANCH   1  21
TORSDOF 15
ENDMDL
