MODEL 1
REMARK minimizedAffinity -9.75993061
REMARK CNNscore 0.75535661
REMARK CNNaffinity 7.52105474
REMARK  12 active torsions:
REMARK  status: ('A' for Active; 'I' for Inactive)
REMARK    1  A    between atoms: C12_13  and  O2_14 
REMARK    2  A    between atoms: C19_21  and  O3_22 
REMARK    3  A    between atoms: C19_21  and  C20_23 
REMARK    4  A    between atoms: C20_23  and  C21_25 
REMARK    5  A    between atoms: C21_25  and  O5_26 
REMARK    6  A    between atoms: O5_26  and  C22_27 
REMARK    7  A    between atoms: C22_27  and  C23_29 
REMARK    8  A    between atoms: C23_29  and  C24_30 
REMARK    9  A    between atoms: C24_30  and  C25_31 
REMARK       I    between atoms: C25_31  and  N1_33 
REMARK   10  A    between atoms: N1_33  and  C26_34 
REMARK   11  A    between atoms: C26_34  and  C27_35 
REMARK   12  A    between atoms: C27_35  and  C28_36 
ROOT
HETATM    1  C1  UNL     1       1.298  51.005 -26.381  1.00  0.00     0.020 C 
HETATM    2  C2  UNL     1       0.085  51.989 -26.371  1.00  0.00    -0.014 C 
HETATM    3  C3  UNL     1       0.166  52.721 -27.744  1.00  0.00     0.022 C 
HETATM    4  C4  UNL     1      -0.409  54.130 -27.777  1.00  0.00     0.084 C 
HETATM    5  C5  UNL     1       0.124  54.958 -26.637  1.00  0.00     0.149 C 
HETATM    6  O1  UNL     1       0.305  56.169 -26.729  1.00  0.00    -0.293 OA
HETATM    7  C6  UNL     1       0.318  54.291 -25.332  1.00  0.00     0.053 C 
HETATM    8  C7  UNL     1       0.251  52.954 -25.207  1.00  0.00    -0.068 C 
HETATM    9  C8  UNL     1       0.295  52.310 -23.846  1.00  0.00     0.035 C 
HETATM   10  C9  UNL     1      -1.000  51.550 -23.606  1.00  0.00     0.010 C 
HETATM   11  C10 UNL     1      -1.388  50.554 -24.727  1.00  0.00    -0.002 C 
HETATM   12  C11 UNL     1      -1.219  51.123 -26.185  1.00  0.00     0.031 C 
HETATM   13  C12 UNL     1      -2.558  51.695 -26.708  1.00  0.00     0.124 C 
HETATM   14  C13 UNL     1      -3.669  50.612 -26.782  1.00  0.00     0.045 C 
HETATM   15  C14 UNL     1      -3.576  49.504 -25.695  1.00  0.00     0.001 C 
HETATM   16  C15 UNL     1      -2.862  48.249 -26.277  1.00  0.00     0.019 C 
HETATM   17  C16 UNL     1      -2.840  50.090 -24.473  1.00  0.00     0.002 C 
HETATM   18  C17 UNL     1      -3.053  49.057 -23.370  1.00  0.00     0.009 C 
HETATM   19  C18 UNL     1      -4.437  48.448 -23.669  1.00  0.00     0.047 C 
HETATM   20  C19 UNL     1      -4.921  49.069 -25.013  1.00  0.00     0.128 C 
ENDROOT
BRANCH  20  21
HETATM   21  O3  UNL     1      -5.710  50.202 -24.631  1.00  0.00    -0.381 OA
HETATM   22  H27 UNL     1      -6.109  50.584 -25.432  1.00  0.00     0.211 HD
ENDBRANCH  20  21
BRANCH  20  23
HETATM   23  C20 UNL     1      -5.779  48.069 -25.834  1.00  0.00     0.185 C 
HETATM   24  O4  UNL     1      -6.754  47.486 -25.352  1.00  0.00    -0.292 OA
BRANCH  23  25
HETATM   25  C21 UNL     1      -5.326  47.746 -27.254  1.00  0.00     0.260 C 
BRANCH  25  26
HETATM   26  O5  UNL     1      -6.118  48.421 -28.231  1.00  0.00    -0.314 OA
BRANCH  26  27
HETATM   27  C22 UNL     1      -7.174  47.692 -28.687  1.00  0.00     0.259 C 
HETATM   28  O6  UNL     1      -8.336  48.072 -28.662  1.00  0.00    -0.265 OA
BRANCH  27  29
HETATM   29  C23 UNL     1      -6.758  46.300 -29.108  1.00  0.00     0.120 C 
BRANCH  29  30
HETATM   30  C24 UNL     1      -6.499  46.136 -30.601  1.00  0.00     0.112 C 
BRANCH  30  31
HETATM   31  C25 UNL     1      -6.362  44.682 -31.001  1.00  0.00     0.218 C 
HETATM   32  O7  UNL     1      -6.715  43.752 -30.287  1.00  0.00    -0.274 OA
HETATM   33  N1  UNL     1      -5.806  44.516 -32.249  1.00  0.00    -0.361 N 
HETATM   34  H34 UNL     1      -5.496  45.326 -32.771  1.00  0.00     0.162 HD
BRANCH  33  35
HETATM   35  C26 UNL     1      -5.557  43.199 -32.809  1.00  0.00     0.127 C 
BRANCH  35  36
HETATM   36  C27 UNL     1      -4.102  43.016 -33.249  1.00  0.00     0.060 C 
BRANCH  36  37
HETATM   37  C28 UNL     1      -3.915  41.797 -34.094  1.00  0.00    -0.029 A 
HETATM   38  C29 UNL     1      -4.404  41.607 -35.372  1.00  0.00     0.096 A 
HETATM   39  N2  UNL     1      -4.015  40.368 -35.803  1.00  0.00    -0.365 N 
HETATM   40  C30 UNL     1      -3.276  39.736 -34.831  1.00  0.00     0.042 A 
HETATM   41  H40 UNL     1      -4.236  39.968 -36.704  1.00  0.00     0.165 HD
HETATM   42  C31 UNL     1      -2.680  38.470 -34.833  1.00  0.00     0.030 A 
HETATM   43  C35 UNL     1      -3.197  40.608 -33.744  1.00  0.00    -0.002 A 
HETATM   44  C32 UNL     1      -1.981  38.081 -33.686  1.00  0.00     0.002 A 
HETATM   45  C33 UNL     1      -1.883  38.928 -32.585  1.00  0.00     0.001 A 
HETATM   46  C34 UNL     1      -2.486  40.191 -32.600  1.00  0.00     0.014 A 
ENDBRANCH  36  37
ENDBRANCH  35  36
ENDBRANCH  33  35
ENDBRANCH  30  31
ENDBRANCH  29  30
ENDBRANCH  27  29
ENDBRANCH  26  27
ENDBRANCH  25  26
ENDBRANCH  23  25
ENDBRANCH  20  23
BRANCH  13  47
HETATM   47  O2  UNL     1      -3.046  52.755 -25.893  1.00  0.00    -0.395 OA
HETATM   48  H16 UNL     1      -2.313  53.351 -25.672  1.00  0.00     0.210 HD
ENDBRANCH  13  47
TORSDOF 12
ENDMDL
