MODEL 1
REMARK minimizedAffinity -9.76064205
REMARK  9 active torsions:
REMARK  status: ('A' for Active; 'I' for Inactive)
REMARK    1  A    between atoms: C2_2  and  C30_34 
REMARK    2  A    between atoms: C3_3  and  C4_4 
REMARK    3  A    between atoms: C4_4  and  C5_5 
REMARK    4  A    between atoms: C5_5  and  C6_6 
REMARK    5  A    between atoms: C6_6  and  C8_8 
REMARK    6  A    between atoms: C10_10  and  O1_12 
REMARK    7  A    between atoms: C14_15  and  O2_16 
REMARK    8  A    between atoms: C25_28  and  O4_29 
REMARK    9  A    between atoms: C30_34  and  O5_35 
ROOT
HETATM    1  C8  UNL     1      -0.211  51.487 -21.286  1.00  0.00     0.005 C 
HETATM    2  C9  UNL     1      -0.516  52.254 -19.999  1.00  0.00     0.048 C 
HETATM    3  C10 UNL     1      -1.454  51.315 -19.210  1.00  0.00     0.079 C 
HETATM    4  C11 UNL     1      -0.634  50.498 -18.203  1.00  0.00     0.051 C 
HETATM    5  C12 UNL     1      -2.146  50.492 -20.289  1.00  0.00    -0.030 C 
HETATM    6  C13 UNL     1      -3.007  49.457 -20.128  1.00  0.00    -0.011 C 
HETATM    7  C14 UNL     1      -3.584  49.063 -18.787  1.00  0.00     0.151 C 
HETATM    8  C15 UNL     1      -5.100  48.863 -18.825  1.00  0.00     0.043 C 
HETATM    9  C16 UNL     1      -5.554  47.904 -19.949  1.00  0.00     0.015 C 
HETATM   10  C17 UNL     1      -7.077  47.530 -19.863  1.00  0.00     0.018 C 
HETATM   11  C18 UNL     1      -7.986  48.696 -19.426  1.00  0.00     0.023 C 
HETATM   12  C19 UNL     1      -7.243  46.418 -18.796  1.00  0.00     0.023 C 
HETATM   13  C20 UNL     1      -7.657  46.946 -21.166  1.00  0.00     0.135 C 
HETATM   14  O3  UNL     1      -8.778  46.416 -21.173  1.00  0.00    -0.297 OA
HETATM   15  C21 UNL     1      -6.944  47.140 -22.483  1.00  0.00     0.080 C 
HETATM   16  C22 UNL     1      -5.442  47.322 -22.369  1.00  0.00     0.020 C 
HETATM   17  C23 UNL     1      -5.033  48.408 -21.344  1.00  0.00    -0.004 C 
HETATM   18  C24 UNL     1      -5.674  49.763 -21.742  1.00  0.00     0.019 C 
HETATM   19  C25 UNL     1      -3.443  48.551 -21.291  1.00  0.00     0.092 C 
HETATM   20  C26 UNL     1      -2.827  48.925 -22.670  1.00  0.00     0.044 C 
HETATM   21  C27 UNL     1      -1.486  49.652 -22.553  1.00  0.00     0.017 C 
HETATM   22  C28 UNL     1      -1.605  50.899 -21.657  1.00  0.00    -0.013 C 
HETATM   23  C29 UNL     1      -2.545  51.944 -22.294  1.00  0.00     0.021 C 
ENDROOT
BRANCH   1  24
HETATM   24  C6  UNL     1       0.554  52.253 -22.405  1.00  0.00    -0.013 C 
HETATM   25  C7  UNL     1       1.156  53.543 -21.836  1.00  0.00     0.010 C 
BRANCH  24  26
HETATM   26  C5  UNL     1      -0.167  52.473 -23.764  1.00  0.00     0.008 C 
BRANCH  26  27
HETATM   27  C4  UNL     1      -0.058  51.402 -24.864  1.00  0.00     0.028 C 
BRANCH  27  28
HETATM   28  C3  UNL     1       1.064  51.624 -25.838  1.00  0.00    -0.022 C 
HETATM   29  C2  UNL     1       0.999  51.793 -27.175  1.00  0.00    -0.064 C 
HETATM   30  C1  UNL     1      -0.266  51.790 -27.991  1.00  0.00     0.045 C 
BRANCH  29  31
HETATM   31  C30 UNL     1       2.264  51.981 -27.978  1.00  0.00     0.197 C 
BRANCH  31  32
HETATM   32  O5  UNL     1       3.375  51.443 -27.282  1.00  0.00    -0.397 OA
HETATM   33  H48 UNL     1       3.171  51.455 -26.333  1.00  0.00     0.209 HD
ENDBRANCH  31  32
ENDBRANCH  29  31
ENDBRANCH  27  28
ENDBRANCH  26  27
ENDBRANCH  24  26
ENDBRANCH   1  24
BRANCH   3  34
HETATM   34  O1  UNL     1      -2.431  52.092 -18.526  1.00  0.00    -0.386 OA
HETATM   35  H19 UNL     1      -1.954  52.722 -17.961  1.00  0.00     0.211 HD
ENDBRANCH   3  34
BRANCH   7  36
HETATM   36  O2  UNL     1      -2.961  47.832 -18.410  1.00  0.00    -0.391 OA
HETATM   37  H21 UNL     1      -3.210  47.665 -17.484  1.00  0.00     0.210 HD
ENDBRANCH   7  36
BRANCH  19  38
HETATM   38  O4  UNL     1      -2.879  47.248 -21.025  1.00  0.00    -0.384 OA
HETATM   39  H38 UNL     1      -2.727  47.182 -20.059  1.00  0.00     0.211 HD
ENDBRANCH  19  38
TORSDOF 9
ENDMDL
