MODEL 1
REMARK minimizedAffinity -9.85333729
REMARK CNNscore 0.691445589
REMARK CNNaffinity 7.50529337
REMARK  12 active torsions:
REMARK  status: ('A' for Active; 'I' for Inactive)
REMARK    1  A    between atoms: O1_2  and  C2_3 
REMARK    2  A    between atoms: C3_5  and  C4_6 
REMARK    3  A    between atoms: C4_6  and  O3_7 
REMARK    4  A    between atoms: C4_6  and  C5_8 
REMARK    5  A    between atoms: C5_8  and  O4_10 
REMARK    6  A    between atoms: C5_8  and  C7_11 
REMARK    7  A    between atoms: C7_11  and  O5_12 
REMARK    8  A    between atoms: C9_14  and  C10_15 
REMARK    9  A    between atoms: C23_28  and  O6_29 
REMARK   10  A    between atoms: O6_29  and  C24_30 
REMARK   11  A    between atoms: C24_30  and  C25_32 
REMARK   12  A    between atoms: C34_41  and  O8_42 
ROOT
HETATM    1  C10 UNL     1      -0.208  51.069 -20.460  1.00  0.00     0.004 C 
HETATM    2  C11 UNL     1      -0.908  49.714 -20.716  1.00  0.00     0.007 C 
HETATM    3  C12 UNL     1      -2.054  49.598 -19.710  1.00  0.00     0.011 C 
HETATM    4  C13 UNL     1      -1.630  50.497 -18.560  1.00  0.00    -0.021 A 
HETATM    5  C14 UNL     1      -2.095  51.923 -18.708  1.00  0.00     0.022 A 
HETATM    6  C15 UNL     1      -0.665  51.545 -19.083  1.00  0.00    -0.027 A 
HETATM    7  C16 UNL     1       0.392  52.178 -18.197  1.00  0.00     0.011 C 
HETATM    8  C17 UNL     1       0.674  51.415 -16.898  1.00  0.00     0.007 C 
HETATM    9  C18 UNL     1      -0.618  50.894 -16.229  1.00  0.00     0.005 C 
HETATM   10  C19 UNL     1      -0.462  50.477 -14.698  1.00  0.00    -0.035 C 
HETATM   11  C20 UNL     1       0.650  49.425 -14.491  1.00  0.00     0.016 C 
HETATM   12  C21 UNL     1      -0.071  51.738 -13.866  1.00  0.00     0.012 C 
HETATM   13  C22 UNL     1      -0.172  51.545 -12.350  1.00  0.00     0.034 C 
HETATM   14  C23 UNL     1      -1.552  51.061 -11.906  1.00  0.00     0.140 C 
HETATM   15  C29 UNL     1      -2.025  49.772 -12.650  1.00  0.00    -0.016 C 
HETATM   16  C30 UNL     1      -3.524  49.566 -12.295  1.00  0.00     0.018 C 
HETATM   17  C31 UNL     1      -1.293  48.517 -12.132  1.00  0.00     0.018 C 
HETATM   18  C32 UNL     1      -1.881  50.007 -14.196  1.00  0.00     0.007 C 
HETATM   19  C33 UNL     1      -2.447  48.871 -15.081  1.00  0.00     0.038 C 
HETATM   20  C34 UNL     1      -2.635  49.331 -16.535  1.00  0.00     0.128 C 
HETATM   21  C35 UNL     1      -1.314  49.838 -17.181  1.00  0.00    -0.005 C 
HETATM   22  C36 UNL     1      -0.393  48.608 -17.450  1.00  0.00     0.019 C 
ENDROOT
BRANCH   1  23
HETATM   23  C9  UNL     1      -0.296  52.043 -21.639  1.00  0.00     0.048 C 
HETATM   24  C2  UNL     1       0.997  52.539 -22.292  1.00  0.00     0.264 C 
HETATM   25  O2  UNL     1       0.695  52.727 -23.691  1.00  0.00    -0.353 OA
HETATM   26  C3  UNL     1      -0.727  52.656 -23.838  1.00  0.00     0.157 C 
HETATM   27  C8  UNL     1      -1.114  51.579 -22.835  1.00  0.00     0.044 C 
BRANCH  24  28
HETATM   28  O1  UNL     1       1.376  53.772 -21.693  1.00  0.00    -0.366 OA
HETATM   29  C1  UNL     1       1.012  53.828 -20.319  1.00  0.00     0.204 C 
ENDBRANCH  24  28
BRANCH  26  30
HETATM   30  C4  UNL     1      -1.130  52.396 -25.297  1.00  0.00     0.183 C 
BRANCH  30  31
HETATM   31  O3  UNL     1      -1.188  50.996 -25.623  1.00  0.00    -0.390 OA
HETATM   32  H7  UNL     1      -0.981  50.480 -24.816  1.00  0.00     0.210 HD
ENDBRANCH  30  31
BRANCH  30  33
HETATM   33  C5  UNL     1      -0.224  53.076 -26.365  1.00  0.00     0.103 C 
HETATM   34  C6  UNL     1       1.068  52.296 -26.619  1.00  0.00     0.051 C 
BRANCH  33  35
HETATM   35  O4  UNL     1       0.180  54.359 -25.814  1.00  0.00    -0.385 OA
HETATM   36  H11 UNL     1      -0.644  54.720 -25.419  1.00  0.00     0.210 HD
ENDBRANCH  33  35
BRANCH  33  37
HETATM   37  C7  UNL     1      -0.953  53.397 -27.693  1.00  0.00     0.204 C 
BRANCH  37  38
HETATM   38  O5  UNL     1      -0.359  52.665 -28.772  1.00  0.00    -0.398 OA
HETATM   39  H14 UNL     1       0.592  52.579 -28.539  1.00  0.00     0.209 HD
ENDBRANCH  37  38
ENDBRANCH  33  37
ENDBRANCH  30  33
ENDBRANCH  26  30
ENDBRANCH   1  23
BRANCH  20  40
HETATM   40  O8  UNL     1      -3.626  50.366 -16.540  1.00  0.00    -0.395 OA
HETATM   41  H55 UNL     1      -4.466  49.977 -16.229  1.00  0.00     0.210 HD
ENDBRANCH  20  40
BRANCH  14  42
HETATM   42  O6  UNL     1      -1.506  50.787 -10.492  1.00  0.00    -0.312 OA
BRANCH  42  43
HETATM   43  C24 UNL     1      -2.266  51.563  -9.690  1.00  0.00     0.283 C 
HETATM   44  O7  UNL     1      -3.212  51.208  -9.007  1.00  0.00    -0.260 OA
BRANCH  43  45
HETATM   45  C25 UNL     1      -1.731  52.941  -9.662  1.00  0.00     0.084 C 
HETATM   46  C26 UNL     1      -2.280  54.048 -10.196  1.00  0.00    -0.082 C 
HETATM   47  C27 UNL     1      -3.620  54.122 -10.878  1.00  0.00     0.043 C 
HETATM   48  C28 UNL     1      -1.555  55.362 -10.112  1.00  0.00     0.043 C 
ENDBRANCH  43  45
ENDBRANCH  42  43
ENDBRANCH  14  42
TORSDOF 12
ENDMDL
