MODEL 1
REMARK minimizedAffinity -6.35069656
REMARK CNNscore 0.453723788
REMARK CNNaffinity 6.40151978
REMARK  12 active torsions:
REMARK  status: ('A' for Active; 'I' for Inactive)
REMARK    1  A    between atoms: C2_2  and  C3_3 
REMARK    2  A    between atoms: C3_3  and  O1_4 
REMARK    3  A    between atoms: C3_3  and  C5_6 
REMARK    4  A    between atoms: C5_6  and  C7_8 
REMARK    5  A    between atoms: C8_10  and  C10_12 
REMARK    6  A    between atoms: C10_12  and  C11_13 
REMARK    7  A    between atoms: C11_13  and  C13_15 
REMARK    8  A    between atoms: C14_16  and  C15_17 
REMARK    9  A    between atoms: C16_18  and  C18_20 
REMARK   10  A    between atoms: C19_22  and  C20_23 
REMARK   11  A    between atoms: C20_23  and  C21_24 
REMARK   12  A    between atoms: C21_24  and  O5_26 
ROOT
HETATM    1  C13 UNL     1      -1.134   8.970  13.654  1.00  0.00    -0.022 C 
HETATM    2  C14 UNL     1      -0.900   8.014  12.740  1.00  0.00    -0.003 C 
ENDROOT
BRANCH   2   3
HETATM    3  C15 UNL     1       0.335   7.930  11.990  1.00  0.00     0.005 C 
HETATM    4  C16 UNL     1       0.517   8.197  10.678  1.00  0.00    -0.055 C 
HETATM    5  C17 UNL     1      -0.574   8.673   9.745  1.00  0.00     0.046 C 
BRANCH   4   6
HETATM    6  C18 UNL     1       1.870   8.080   9.971  1.00  0.00     0.154 C 
HETATM    7  O3  UNL     1       2.762   7.555  10.972  1.00  0.00    -0.375 OA
HETATM    8  C19 UNL     1       4.057   7.243  10.461  1.00  0.00     0.132 C 
HETATM    9  C22 UNL     1       3.947   6.012   9.553  1.00  0.00     0.033 C 
HETATM   10  C23 UNL     1       2.577   5.894   8.885  1.00  0.00     0.009 C 
HETATM   11  C24 UNL     1       1.917   7.255   8.651  1.00  0.00     0.015 C 
HETATM   12  C25 UNL     1       2.640   8.027   7.535  1.00  0.00     0.012 C 
BRANCH   8  13
HETATM   13  C20 UNL     1       4.996   6.971  11.635  1.00  0.00     0.141 C 
BRANCH  13  14
HETATM   14  C21 UNL     1       6.324   7.645  11.434  1.00  0.00     0.141 C 
HETATM   15  O4  UNL     1       6.588   8.828  11.571  1.00  0.00    -0.650 OA
BRANCH  14  16
HETATM   16  O5  UNL     1       7.264   6.788  10.985  1.00  0.00    -0.776 OA
HETATM   17  H34 UNL     1       8.064   7.344  10.889  1.00  0.00     0.167 HD
ENDBRANCH  14  16
ENDBRANCH  13  14
ENDBRANCH   8  13
ENDBRANCH   4   6
ENDBRANCH   2   3
BRANCH   1  18
HETATM   18  C11 UNL     1      -2.407   9.111  14.464  1.00  0.00     0.007 C 
HETATM   19  C12 UNL     1      -2.681  10.585  14.799  1.00  0.00     0.014 C 
BRANCH  18  20
HETATM   20  C10 UNL     1      -3.637   8.478  13.778  1.00  0.00     0.048 C 
BRANCH  20  21
HETATM   21  C8  UNL     1      -4.264   7.338  14.555  1.00  0.00     0.085 A 
HETATM   22  C7  UNL     1      -5.649   6.857  14.101  1.00  0.00     0.163 A 
HETATM   23  O2  UNL     1      -5.467   7.702  15.245  1.00  0.00    -0.369 OA
HETATM   24  C9  UNL     1      -3.351   6.468  15.366  1.00  0.00     0.049 C 
BRANCH  22  25
HETATM   25  C5  UNL     1      -6.233   5.499  14.409  1.00  0.00     0.042 C 
HETATM   26  C6  UNL     1      -5.930   4.524  13.268  1.00  0.00     0.015 C 
BRANCH  25  27
HETATM   27  C3  UNL     1      -7.760   5.562  14.722  1.00  0.00     0.126 C 
BRANCH  27  28
HETATM   28  C2  UNL     1      -8.525   6.638  13.926  1.00  0.00     0.028 C 
HETATM   29  C1  UNL     1      -9.295   6.045  12.748  1.00  0.00     0.007 C 
ENDBRANCH  27  28
BRANCH  27  30
HETATM   30  O1  UNL     1      -8.011   5.806  16.114  1.00  0.00    -0.390 OA
HETATM   31  C4  UNL     1      -8.710   7.017  16.373  1.00  0.00     0.202 C 
ENDBRANCH  27  30
ENDBRANCH  25  27
ENDBRANCH  22  25
ENDBRANCH  20  21
ENDBRANCH  18  20
ENDBRANCH   1  18
TORSDOF 12
ENDMDL
