MODEL 1
REMARK minimizedAffinity -5.86881256
REMARK CNNscore 0.280287951
REMARK CNNaffinity 5.06162405
REMARK  6 active torsions:
REMARK  status: ('A' for Active; 'I' for Inactive)
REMARK    1  A    between atoms: C9_10  and  C10_11 
REMARK    2  A    between atoms: C11_13  and  O3_14 
REMARK    3  A    between atoms: C12_15  and  C13_16 
REMARK    4  A    between atoms: C14_18  and  O5_19 
REMARK    5  A    between atoms: C16_21  and  C17_22 
REMARK    6  A    between atoms: C17_22  and  C18_23 
ROOT
HETATM    1  C1  UNL     1     -14.593 -13.156  15.068  1.00  0.00     0.043 C 
HETATM    2  C2  UNL     1     -14.249 -13.516  13.652  1.00  0.00    -0.087 C 
HETATM    3  C3  UNL     1     -13.245 -14.339  13.290  1.00  0.00    -0.024 C 
HETATM    4  C4  UNL     1     -12.164 -14.938  14.129  1.00  0.00     0.030 C 
HETATM    5  C5  UNL     1     -10.969 -14.025  14.478  1.00  0.00     0.042 C 
HETATM    6  C6  UNL     1     -10.431 -12.965  13.453  1.00  0.00     0.069 C 
HETATM    7  C7  UNL     1     -10.225 -13.610  12.062  1.00  0.00     0.047 C 
HETATM    8  O1  UNL     1      -9.067 -12.711  13.928  1.00  0.00    -0.338 OA
HETATM    9  C8  UNL     1      -8.464 -11.640  13.324  1.00  0.00     0.095 A 
HETATM   10  C9  UNL     1      -7.155 -11.743  12.845  1.00  0.00     0.070 A 
HETATM   11  C11 UNL     1      -6.533 -10.622  12.275  1.00  0.00     0.097 A 
HETATM   12  C12 UNL     1      -7.213  -9.399  12.225  1.00  0.00     0.069 A 
HETATM   13  C14 UNL     1      -8.515  -9.302  12.745  1.00  0.00     0.091 A 
HETATM   14  C15 UNL     1      -9.155 -10.427  13.278  1.00  0.00     0.015 A 
HETATM   15  C16 UNL     1     -10.513 -10.383  13.947  1.00  0.00     0.032 C 
HETATM   16  C21 UNL     1     -11.325 -11.634  13.509  1.00  0.00     0.034 C 
HETATM   17  C22 UNL     1     -12.263 -11.472  12.294  1.00  0.00     0.006 A 
HETATM   18  C23 UNL     1     -13.554 -10.707  12.577  1.00  0.00    -0.001 A 
HETATM   19  C24 UNL     1     -14.936 -11.309  12.478  1.00  0.00     0.010 C 
HETATM   20  C25 UNL     1     -15.065 -12.841  12.560  1.00  0.00     0.034 C 
HETATM   21  C26 UNL     1     -12.705 -10.318  11.378  1.00  0.00    -0.039 A 
HETATM   22  C27 UNL     1     -12.063  -8.957  11.378  1.00  0.00     0.015 C 
HETATM   23  C28 UNL     1     -13.147 -10.729   9.986  1.00  0.00     0.015 C 
ENDROOT
BRANCH  15  24
HETATM   24  C17 UNL     1     -10.266 -10.306  15.489  1.00  0.00     0.014 C 
BRANCH  24  25
HETATM   25  C18 UNL     1     -10.853  -9.105  16.262  1.00  0.00    -0.022 C 
HETATM   26  C19 UNL     1     -10.636  -9.184  17.767  1.00  0.00     0.009 C 
HETATM   27  C20 UNL     1     -12.325  -8.849  15.937  1.00  0.00     0.009 C 
ENDBRANCH  24  25
ENDBRANCH  15  24
BRANCH  13  28
HETATM   28  O5  UNL     1      -9.192  -8.110  12.785  1.00  0.00    -0.359 OA
HETATM   29  H15 UNL     1      -8.627  -7.415  12.374  1.00  0.00     0.217 HD
ENDBRANCH  13  28
BRANCH  10  30
HETATM   30  C10 UNL     1      -6.449 -13.034  12.942  1.00  0.00     0.275 C 
HETATM   31  O2  UNL     1      -6.782 -13.977  12.228  1.00  0.00    -0.301 OA
ENDBRANCH  10  30
BRANCH  12  32
HETATM   32  C13 UNL     1      -6.545  -8.216  11.646  1.00  0.00     0.275 C 
HETATM   33  O4  UNL     1      -6.483  -7.165  12.280  1.00  0.00    -0.301 OA
ENDBRANCH  12  32
BRANCH  11  34
HETATM   34  O3  UNL     1      -5.257 -10.685  11.771  1.00  0.00    -0.359 OA
HETATM   35  H13 UNL     1      -4.914 -11.602  11.890  1.00  0.00     0.217 HD
ENDBRANCH  11  34
TORSDOF 6
ENDMDL
