MODEL 1
REMARK minimizedAffinity -8.90116024
REMARK CNNscore 0.546528161
REMARK CNNaffinity 7.1486001
REMARK  19 active torsions:
REMARK  status: ('A' for Active; 'I' for Inactive)
REMARK    1  A    between atoms: C19_20  and  O2_21 
REMARK    2  A    between atoms: C19_20  and  C20_22 
REMARK    3  A    between atoms: C20_22  and  C21_24 
REMARK    4  A    between atoms: C21_24  and  O4_25 
REMARK    5  A    between atoms: O4_25  and  C22_26 
REMARK    6  A    between atoms: C22_26  and  C23_28 
REMARK    7  A    between atoms: C23_28  and  C24_29 
REMARK    8  A    between atoms: C24_29  and  C25_30 
REMARK       I    between atoms: C25_30  and  N1_32 
REMARK    9  A    between atoms: N1_32  and  C26_33 
REMARK   10  A    between atoms: C26_33  and  C27_34 
REMARK   11  A    between atoms: C27_34  and  C28_35 
REMARK   12  A    between atoms: C28_35  and  C29_36 
REMARK   13  A    between atoms: C29_36  and  C30_37 
REMARK   14  A    between atoms: C30_37  and  C31_38 
REMARK       I    between atoms: C31_38  and  N2_40 
REMARK   15  A    between atoms: N2_40  and  C32_41 
REMARK   16  A    between atoms: C32_41  and  C33_42 
REMARK   17  A    between atoms: C33_42  and  C34_43 
REMARK   18  A    between atoms: C37_46  and  O8_47 
REMARK   19  A    between atoms: C38_48  and  O9_49 
ROOT
HETATM    1  C22 UNL     1      -1.492  48.458 -15.610  1.00  0.00     0.259 C 
HETATM    2  O5  UNL     1      -0.443  48.824 -16.116  1.00  0.00    -0.265 OA
ENDROOT
BRANCH   1   3
HETATM    3  O4  UNL     1      -2.674  48.331 -16.283  1.00  0.00    -0.314 OA
BRANCH   3   4
HETATM    4  C21 UNL     1      -2.608  47.501 -17.433  1.00  0.00     0.260 C 
BRANCH   4   5
HETATM    5  C20 UNL     1      -3.080  48.046 -18.787  1.00  0.00     0.185 C 
HETATM    6  O3  UNL     1      -3.923  47.415 -19.435  1.00  0.00    -0.292 OA
BRANCH   5   7
HETATM    7  C19 UNL     1      -2.584  49.458 -19.239  1.00  0.00     0.128 C 
HETATM    8  C14 UNL     1      -3.076  49.869 -20.676  1.00  0.00    -0.002 C 
HETATM    9  C13 UNL     1      -2.925  51.397 -20.905  1.00  0.00     0.013 C 
HETATM   10  C15 UNL     1      -4.547  49.469 -20.895  1.00  0.00     0.019 C 
HETATM   11  C16 UNL     1      -2.104  49.100 -21.598  1.00  0.00     0.002 C 
HETATM   12  C12 UNL     1      -3.033  51.807 -22.371  1.00  0.00     0.007 C 
HETATM   13  C11 UNL     1      -2.001  51.101 -23.270  1.00  0.00     0.002 C 
HETATM   14  C2  UNL     1      -2.091  51.538 -24.802  1.00  0.00    -0.016 C 
HETATM   15  C10 UNL     1      -1.996  49.562 -23.069  1.00  0.00    -0.004 C 
HETATM   16  C1  UNL     1      -3.452  52.168 -25.187  1.00  0.00     0.020 C 
HETATM   17  C3  UNL     1      -0.970  52.596 -25.035  1.00  0.00     0.022 C 
HETATM   18  C7  UNL     1      -1.888  50.349 -25.745  1.00  0.00    -0.068 C 
HETATM   19  C4  UNL     1      -0.703  52.900 -26.501  1.00  0.00     0.084 C 
HETATM   20  C5  UNL     1      -0.408  51.629 -27.255  1.00  0.00     0.149 C 
HETATM   21  O1  UNL     1       0.307  51.611 -28.255  1.00  0.00    -0.293 OA
HETATM   22  C6  UNL     1      -1.086  50.384 -26.825  1.00  0.00     0.053 C 
HETATM   23  C8  UNL     1      -2.668  49.085 -25.449  1.00  0.00     0.035 C 
HETATM   24  C9  UNL     1      -3.046  48.916 -23.976  1.00  0.00     0.010 C 
HETATM   25  C17 UNL     1      -0.750  49.217 -20.868  1.00  0.00     0.009 C 
HETATM   26  C18 UNL     1      -1.052  49.391 -19.378  1.00  0.00     0.047 C 
BRANCH   7  27
HETATM   27  O2  UNL     1      -2.890  50.478 -18.297  1.00  0.00    -0.381 OA
HETATM   28  H27 UNL     1      -3.845  50.660 -18.332  1.00  0.00     0.211 HD
ENDBRANCH   7  27
ENDBRANCH   5   7
ENDBRANCH   4   5
ENDBRANCH   3   4
ENDBRANCH   1   3
BRANCH   1  29
HETATM   29  C23 UNL     1      -1.669  48.074 -14.165  1.00  0.00     0.120 C 
BRANCH  29  30
HETATM   30  C24 UNL     1      -2.949  48.674 -13.600  1.00  0.00     0.112 C 
BRANCH  30  31
HETATM   31  C25 UNL     1      -2.710  50.007 -12.915  1.00  0.00     0.217 C 
HETATM   32  O6  UNL     1      -2.050  50.912 -13.409  1.00  0.00    -0.274 OA
HETATM   33  N1  UNL     1      -3.365  50.116 -11.705  1.00  0.00    -0.361 N 
HETATM   34  H34 UNL     1      -3.731  49.273 -11.281  1.00  0.00     0.162 HD
BRANCH  33  35
HETATM   35  C26 UNL     1      -3.160  51.266 -10.847  1.00  0.00     0.122 C 
BRANCH  35  36
HETATM   36  C27 UNL     1      -4.266  52.307 -11.006  1.00  0.00     0.020 C 
BRANCH  36  37
HETATM   37  C28 UNL     1      -3.799  53.762 -10.879  1.00  0.00     0.002 C 
BRANCH  37  38
HETATM   38  C29 UNL     1      -2.736  54.037  -9.807  1.00  0.00     0.009 C 
BRANCH  38  39
HETATM   39  C30 UNL     1      -1.677  55.064 -10.205  1.00  0.00     0.103 C 
BRANCH  39  40
HETATM   40  C31 UNL     1      -0.373  54.441 -10.671  1.00  0.00     0.217 C 
HETATM   41  O7  UNL     1      -0.288  53.322 -11.165  1.00  0.00    -0.274 OA
HETATM   42  N2  UNL     1       0.720  55.255 -10.453  1.00  0.00    -0.361 N 
HETATM   43  H45 UNL     1       0.559  56.230 -10.234  1.00  0.00     0.162 HD
BRANCH  42  44
HETATM   44  C32 UNL     1       2.049  54.874 -10.892  1.00  0.00     0.127 C 
BRANCH  44  45
HETATM   45  C33 UNL     1       3.032  56.048 -10.955  1.00  0.00     0.058 C 
BRANCH  45  46
HETATM   46  C34 UNL     1       4.092  55.986  -9.878  1.00  0.00    -0.054 A 
HETATM   47  C35 UNL     1       3.895  56.659  -8.660  1.00  0.00     0.010 A 
HETATM   48  C36 UNL     1       4.852  56.590  -7.646  1.00  0.00     0.040 A 
HETATM   49  C37 UNL     1       6.003  55.848  -7.854  1.00  0.00     0.098 A 
HETATM   50  C38 UNL     1       6.216  55.182  -9.058  1.00  0.00     0.099 A 
HETATM   51  C39 UNL     1       5.267  55.241 -10.074  1.00  0.00     0.046 A 
BRANCH  49  52
HETATM   52  O8  UNL     1       6.939  55.779  -6.862  1.00  0.00    -0.358 OA
HETATM   53  H52 UNL     1       7.651  55.223  -7.236  1.00  0.00     0.217 HD
ENDBRANCH  49  52
BRANCH  50  54
HETATM   54  O9  UNL     1       7.378  54.475  -9.196  1.00  0.00    -0.358 OA
HETATM   55  H53 UNL     1       7.404  54.105 -10.097  1.00  0.00     0.217 HD
ENDBRANCH  50  54
ENDBRANCH  45  46
ENDBRANCH  44  45
ENDBRANCH  42  44
ENDBRANCH  39  40
ENDBRANCH  38  39
ENDBRANCH  37  38
ENDBRANCH  36  37
ENDBRANCH  35  36
ENDBRANCH  33  35
ENDBRANCH  30  31
ENDBRANCH  29  30
ENDBRANCH   1  29
TORSDOF 19
ENDMDL
