MODEL 1
REMARK minimizedAffinity -10.258769
REMARK CNNscore 0.535266638
REMARK CNNaffinity 6.19708586
REMARK  6 active torsions:
REMARK  status: ('A' for Active; 'I' for Inactive)
REMARK    1  A    between atoms: C2_2  and  C3_3 
REMARK    2  A    between atoms: C6_6  and  O1_7 
REMARK    3  A    between atoms: C7_8  and  C8_9 
REMARK    4  A    between atoms: C20_25  and  O5_26 
REMARK    5  A    between atoms: C26_32  and  O6_33 
REMARK    6  A    between atoms: C31_39  and  O8_40 
ROOT
HETATM    1  C3  UNL     1       2.229  51.468 -16.037  1.00  0.00     0.008 C 
HETATM    2  C4  UNL     1       1.193  50.982 -15.039  1.00  0.00    -0.023 C 
HETATM    3  C5  UNL     1       0.640  49.754 -15.054  1.00  0.00     0.004 C 
HETATM    4  C6  UNL     1      -0.399  49.286 -14.072  1.00  0.00     0.174 C 
HETATM    5  C7  UNL     1      -1.857  49.536 -14.565  1.00  0.00     0.187 C 
HETATM    6  O2  UNL     1      -2.210  48.681 -15.671  1.00  0.00    -0.308 OA
HETATM    7  C12 UNL     1      -3.045  49.238 -16.593  1.00  0.00     0.276 C 
HETATM    8  O3  UNL     1      -3.441  50.403 -16.531  1.00  0.00    -0.264 OA
HETATM    9  C13 UNL     1      -3.458  48.274 -17.772  1.00  0.00     0.090 C 
HETATM   10  C14 UNL     1      -4.995  48.512 -17.872  1.00  0.00     0.035 C 
HETATM   11  C15 UNL     1      -3.211  46.813 -17.450  1.00  0.00     0.003 C 
HETATM   12  C16 UNL     1      -3.488  45.775 -18.251  1.00  0.00     0.072 C 
HETATM   13  C17 UNL     1      -4.080  45.848 -19.601  1.00  0.00     0.245 C 
HETATM   14  O4  UNL     1      -4.737  44.895 -20.016  1.00  0.00    -0.268 OA
HETATM   15  N1  UNL     1      -3.807  46.893 -20.434  1.00  0.00    -0.324 N 
HETATM   16  C18 UNL     1      -3.026  48.025 -20.287  1.00  0.00     0.052 C 
HETATM   17  C19 UNL     1      -2.771  48.640 -19.110  1.00  0.00     0.000 C 
HETATM   18  C20 UNL     1      -1.701  49.710 -19.041  1.00  0.00     0.185 C 
HETATM   19  C21 UNL     1      -1.232  50.355 -20.326  1.00  0.00     0.001 A 
HETATM   20  C22 UNL     1      -1.592  49.759 -21.551  1.00  0.00    -0.013 A 
HETATM   21  C23 UNL     1      -1.189  50.343 -22.766  1.00  0.00     0.020 A 
HETATM   22  C24 UNL     1      -0.462  51.536 -22.797  1.00  0.00    -0.027 A 
HETATM   23  C25 UNL     1      -0.092  52.160 -24.112  1.00  0.00     0.051 C 
HETATM   24  C26 UNL     1      -0.137  52.149 -21.585  1.00  0.00     0.086 A 
HETATM   25  C27 UNL     1      -0.478  51.561 -20.347  1.00  0.00     0.053 A 
HETATM   26  C28 UNL     1      -0.015  52.303 -19.127  1.00  0.00     0.163 C 
HETATM   27  O7  UNL     1      -0.074  53.535 -19.145  1.00  0.00    -0.292 OA
HETATM   28  C29 UNL     1       0.573  51.543 -17.963  1.00  0.00     0.084 C 
HETATM   29  C30 UNL     1       1.572  52.349 -17.127  1.00  0.00     0.016 C 
HETATM   30  C31 UNL     1      -2.424  48.501 -21.605  1.00  0.00     0.202 C 
HETATM   31  H24 UNL     1      -4.111  46.664 -21.378  1.00  0.00     0.169 HD
ENDROOT
BRANCH   5  32
HETATM   32  C8  UNL     1      -2.857  49.395 -13.427  1.00  0.00     0.010 C 
HETATM   33  C9  UNL     1      -3.349  50.299 -12.556  1.00  0.00    -0.089 C 
HETATM   34  C10 UNL     1      -4.285  49.860 -11.456  1.00  0.00     0.042 C 
HETATM   35  C11 UNL     1      -3.064  51.773 -12.562  1.00  0.00     0.042 C 
ENDBRANCH   5  32
BRANCH   4  36
HETATM   36  O1  UNL     1      -0.133  47.905 -13.819  1.00  0.00    -0.389 OA
HETATM   37  H10 UNL     1      -0.787  47.618 -13.160  1.00  0.00     0.210 HD
ENDBRANCH   4  36
BRANCH   1  38
HETATM   38  C2  UNL     1       3.341  52.219 -15.274  1.00  0.00     0.004 C 
HETATM   39  C1  UNL     1       4.533  52.594 -16.146  1.00  0.00     0.006 C 
ENDBRANCH   1  38
BRANCH  18  40
HETATM   40  O5  UNL     1      -0.607  49.038 -18.432  1.00  0.00    -0.386 OA
HETATM   41  H26 UNL     1      -0.108  48.591 -19.137  1.00  0.00     0.210 HD
ENDBRANCH  18  40
BRANCH  30  42
HETATM   42  O8  UNL     1      -1.602  47.467 -22.146  1.00  0.00    -0.385 OA
HETATM   43  H37 UNL     1      -1.690  46.680 -21.577  1.00  0.00     0.211 HD
ENDBRANCH  30  42
BRANCH  24  44
HETATM   44  O6  UNL     1       0.531  53.349 -21.665  1.00  0.00    -0.359 OA
HETATM   45  H31 UNL     1       0.425  53.812 -20.804  1.00  0.00     0.217 HD
ENDBRANCH  24  44
TORSDOF 6
ENDMDL
