MODEL 1
REMARK minimizedAffinity -9.15406418
REMARK CNNscore 0.595483959
REMARK CNNaffinity 7.2654767
REMARK  12 active torsions:
REMARK  status: ('A' for Active; 'I' for Inactive)
REMARK    1  A    between atoms: O1_2  and  C2_3 
REMARK    2  A    between atoms: C4_5  and  O2_6 
REMARK    3  A    between atoms: O2_6  and  C5_7 
REMARK    4  A    between atoms: C8_10  and  C9_11 
REMARK    5  A    between atoms: N1_12  and  C10_14 
REMARK    6  A    between atoms: C10_14  and  C11_15 
REMARK    7  A    between atoms: C11_15  and  C12_16 
REMARK    8  A    between atoms: C12_16  and  O3_17 
REMARK    9  A    between atoms: C18_23  and  C19_24 
REMARK   10  A    between atoms: C25_32  and  O6_33 
REMARK   11  A    between atoms: C29_37  and  O7_38 
REMARK   12  A    between atoms: C33_43  and  O9_44 
ROOT
HETATM    1  C5  UNL     1      -6.201  48.836 -24.116  1.00  0.00     0.127 C 
HETATM    2  C6  UNL     1      -6.185  50.168 -23.373  1.00  0.00     0.033 C 
HETATM    3  C7  UNL     1      -6.775  50.051 -21.979  1.00  0.00     0.021 C 
HETATM    4  C8  UNL     1      -6.070  48.973 -21.095  1.00  0.00     0.026 C 
HETATM    5  C13 UNL     1      -4.563  49.318 -20.824  1.00  0.00     0.009 C 
HETATM    6  C14 UNL     1      -4.353  50.684 -20.163  1.00  0.00     0.007 C 
HETATM    7  C15 UNL     1      -2.874  51.040 -20.210  1.00  0.00     0.013 C 
HETATM    8  C16 UNL     1      -1.978  50.063 -19.417  1.00  0.00    -0.005 C 
HETATM    9  C17 UNL     1      -2.168  50.370 -17.911  1.00  0.00     0.019 C 
HETATM   10  C18 UNL     1      -0.440  50.216 -19.787  1.00  0.00     0.028 C 
HETATM   11  C23 UNL     1      -0.034  48.873 -20.432  1.00  0.00     0.013 C 
HETATM   12  C24 UNL     1      -1.342  48.257 -20.907  1.00  0.00     0.040 C 
HETATM   13  C25 UNL     1      -2.304  48.564 -19.749  1.00  0.00     0.070 C 
HETATM   14  C26 UNL     1      -3.808  48.225 -20.025  1.00  0.00     0.026 C 
HETATM   15  C27 UNL     1      -3.979  46.846 -20.704  1.00  0.00     0.011 C 
HETATM   16  C28 UNL     1      -5.417  46.490 -21.088  1.00  0.00     0.039 C 
HETATM   17  C29 UNL     1      -6.152  47.608 -21.844  1.00  0.00     0.073 C 
HETATM   18  C30 UNL     1      -5.586  47.709 -23.285  1.00  0.00     0.071 C 
ENDROOT
BRANCH   1  19
HETATM   19  O2  UNL     1      -5.398  49.030 -25.283  1.00  0.00    -0.356 OA
BRANCH  19  20
HETATM   20  C4  UNL     1      -4.137  49.641 -25.020  1.00  0.00     0.263 C 
HETATM   21  C3  UNL     1      -3.455  49.841 -26.367  1.00  0.00     0.095 C 
HETATM   22  C2  UNL     1      -2.092  50.496 -26.180  1.00  0.00     0.156 C 
HETATM   23  C33 UNL     1      -2.248  51.794 -25.366  1.00  0.00     0.175 C 
HETATM   24  C31 UNL     1      -3.050  51.531 -24.073  1.00  0.00     0.151 C 
HETATM   25  O8  UNL     1      -4.298  50.881 -24.344  1.00  0.00    -0.354 OA
HETATM   26  C32 UNL     1      -3.370  52.821 -23.327  1.00  0.00     0.042 C 
BRANCH  22  27
HETATM   27  O1  UNL     1      -1.478  50.848 -27.433  1.00  0.00    -0.388 OA
HETATM   28  C1  UNL     1      -0.110  51.206 -27.317  1.00  0.00     0.202 C 
ENDBRANCH  22  27
BRANCH  23  29
HETATM   29  O9  UNL     1      -2.899  52.776 -26.186  1.00  0.00    -0.390 OA
HETATM   30  H51 UNL     1      -2.504  52.671 -27.076  1.00  0.00     0.210 HD
ENDBRANCH  23  29
ENDBRANCH  19  20
ENDBRANCH   1  19
BRANCH  17  31
HETATM   31  O7  UNL     1      -7.531  47.232 -21.979  1.00  0.00    -0.389 OA
HETATM   32  H43 UNL     1      -7.558  46.326 -22.336  1.00  0.00     0.210 HD
ENDBRANCH  17  31
BRANCH   4  33
HETATM   33  C9  UNL     1      -6.879  48.971 -19.782  1.00  0.00     0.068 C 
HETATM   34  N1  UNL     1      -7.425  47.908 -19.287  1.00  0.00    -0.401 N 
ATOM     35  H1  UNL     1      -7.382  47.001 -19.751  1.00  0.00     0.158 HD
BRANCH  34  36
HETATM   36  C10 UNL     1      -8.114  48.110 -18.004  1.00  0.00     0.121 C 
BRANCH  36  37
HETATM   37  C11 UNL     1      -9.604  48.349 -18.267  1.00  0.00     0.045 C 
BRANCH  37  38
HETATM   38  C12 UNL     1     -10.508  47.661 -17.248  1.00  0.00     0.165 C 
BRANCH  38  39
HETATM   39  O3  UNL     1     -10.251  48.140 -15.934  1.00  0.00    -0.401 OA
HETATM   40  H20 UNL     1      -9.276  48.245 -15.880  1.00  0.00     0.209 HD
ENDBRANCH  38  39
ENDBRANCH  37  38
ENDBRANCH  36  37
ENDBRANCH  34  36
ENDBRANCH   4  33
BRANCH  13  41
HETATM   41  O6  UNL     1      -1.854  47.762 -18.637  1.00  0.00    -0.389 OA
HETATM   42  H37 UNL     1      -2.320  46.907 -18.646  1.00  0.00     0.210 HD
ENDBRANCH  13  41
BRANCH  10  43
HETATM   43  C19 UNL     1      -0.035  51.411 -20.617  1.00  0.00    -0.045 A 
HETATM   44  C20 UNL     1       0.491  52.548 -20.157  1.00  0.00     0.087 A 
HETATM   45  C21 UNL     1       0.734  53.417 -21.309  1.00  0.00     0.283 A 
HETATM   46  O4  UNL     1       1.223  54.532 -21.253  1.00  0.00    -0.260 OA
HETATM   47  O5  UNL     1       0.324  52.783 -22.444  1.00  0.00    -0.314 OA
HETATM   48  C22 UNL     1      -0.127  51.471 -22.103  1.00  0.00     0.213 A 
ENDBRANCH  10  43
TORSDOF 12
ENDMDL
