MODEL 1
REMARK minimizedAffinity -6.57103491
REMARK CNNscore 0.558387816
REMARK CNNaffinity 6.28059912
REMARK  10 active torsions:
REMARK  status: ('A' for Active; 'I' for Inactive)
REMARK    1  A    between atoms: C14_14  and  C15_15 
REMARK    2  A    between atoms: C15_15  and  C17_17 
REMARK    3  A    between atoms: C17_17  and  C18_18 
REMARK    4  A    between atoms: C18_18  and  C19_19 
REMARK    5  A    between atoms: C20_20  and  C22_22 
REMARK    6  A    between atoms: C22_22  and  O2_24 
REMARK    7  A    between atoms: C27_29  and  C28_30 
REMARK    8  A    between atoms: C28_30  and  C29_31 
REMARK    9  A    between atoms: C29_31  and  C30_32 
REMARK   10  A    between atoms: C30_32  and  O3_33 
ROOT
HETATM    1  C1  UNL     1     -11.622  44.202 -26.981  1.00  0.00     0.043 C 
HETATM    2  C2  UNL     1     -11.385  45.586 -27.546  1.00  0.00    -0.085 C 
HETATM    3  C3  UNL     1     -12.542  46.515 -27.257  1.00  0.00     0.043 C 
HETATM    4  C4  UNL     1     -10.257  45.941 -28.221  1.00  0.00    -0.073 C 
HETATM    5  C5  UNL     1      -9.151  44.941 -28.474  1.00  0.00     0.035 C 
HETATM    6  C6  UNL     1      -8.131  45.306 -29.550  1.00  0.00     0.010 C 
HETATM    7  C7  UNL     1      -8.637  46.142 -30.742  1.00  0.00     0.003 C 
HETATM    8  C8  UNL     1      -9.639  47.318 -30.341  1.00  0.00    -0.032 C 
HETATM    9  C9  UNL     1      -9.050  48.713 -30.696  1.00  0.00     0.016 C 
HETATM   10  C10 UNL     1     -10.986  47.225 -31.153  1.00  0.00     0.011 C 
HETATM   11  C11 UNL     1     -10.922  46.903 -32.661  1.00  0.00     0.011 C 
HETATM   12  C12 UNL     1      -9.655  46.167 -33.118  1.00  0.00    -0.032 C 
HETATM   13  C13 UNL     1      -8.589  47.194 -33.607  1.00  0.00     0.016 C 
HETATM   14  C14 UNL     1      -9.876  45.116 -34.253  1.00  0.00    -0.002 C 
HETATM   15  C23 UNL     1      -8.659  44.166 -34.100  1.00  0.00     0.006 C 
HETATM   16  C24 UNL     1      -8.046  44.455 -32.705  1.00  0.00     0.011 C 
HETATM   17  C25 UNL     1      -9.136  45.254 -31.946  1.00  0.00    -0.032 C 
HETATM   18  C26 UNL     1     -10.153  44.180 -31.434  1.00  0.00     0.016 C 
HETATM   19  C27 UNL     1     -10.019  47.334 -28.796  1.00  0.00     0.023 C 
ENDROOT
BRANCH  14  20
HETATM   20  C15 UNL     1     -10.324  45.523 -35.688  1.00  0.00    -0.014 C 
HETATM   21  C16 UNL     1      -9.178  46.279 -36.387  1.00  0.00     0.010 C 
BRANCH  20  22
HETATM   22  C17 UNL     1     -11.661  46.249 -35.950  1.00  0.00     0.008 C 
BRANCH  22  23
HETATM   23  C18 UNL     1     -12.477  45.828 -37.177  1.00  0.00     0.028 C 
BRANCH  23  24
HETATM   24  C19 UNL     1     -12.761  47.020 -38.052  1.00  0.00    -0.013 C 
HETATM   25  C20 UNL     1     -13.781  47.897 -37.955  1.00  0.00     0.008 C 
HETATM   26  C21 UNL     1     -14.888  47.859 -36.946  1.00  0.00     0.055 C 
BRANCH  25  27
HETATM   27  C22 UNL     1     -13.803  48.994 -38.957  1.00  0.00     0.171 C 
HETATM   28  O1  UNL     1     -13.328  50.108 -38.829  1.00  0.00    -0.646 OA
BRANCH  27  29
HETATM   29  O2  UNL     1     -14.432  48.641 -40.091  1.00  0.00    -0.773 OA
HETATM   30  H35 UNL     1     -14.364  49.446 -40.646  1.00  0.00     0.167 HD
ENDBRANCH  27  29
ENDBRANCH  25  27
ENDBRANCH  23  24
ENDBRANCH  22  23
ENDBRANCH  20  22
ENDBRANCH  14  20
BRANCH  19  31
HETATM   31  C28 UNL     1      -9.210  48.230 -27.806  1.00  0.00     0.012 C 
BRANCH  31  32
HETATM   32  C29 UNL     1      -9.068  47.785 -26.350  1.00  0.00     0.027 C 
BRANCH  32  33
HETATM   33  C30 UNL     1      -9.298  48.927 -25.364  1.00  0.00     0.164 C 
BRANCH  33  34
HETATM   34  O3  UNL     1      -9.583  50.143 -26.042  1.00  0.00    -0.401 OA
HETATM   35  H50 UNL     1      -8.745  50.475 -26.409  1.00  0.00     0.209 HD
ENDBRANCH  33  34
ENDBRANCH  32  33
ENDBRANCH  31  32
ENDBRANCH  19  31
TORSDOF 10
ENDMDL
