MODEL 1
REMARK minimizedAffinity -7.24361515
REMARK CNNscore 0.656316161
REMARK CNNaffinity 6.89801788
REMARK  6 active torsions:
REMARK  status: ('A' for Active; 'I' for Inactive)
REMARK    1  A    between atoms: C2_2  and  C30_31 
REMARK    2  A    between atoms: C3_3  and  C4_4 
REMARK    3  A    between atoms: C4_4  and  C5_5 
REMARK    4  A    between atoms: C5_5  and  C6_6 
REMARK    5  A    between atoms: C6_6  and  C8_8 
REMARK    6  A    between atoms: C30_31  and  O3_33 
ROOT
HETATM    1  C8  UNL     1      -0.758  13.080  17.378  1.00  0.00    -0.002 C 
HETATM    2  C9  UNL     1      -2.119  13.825  17.539  1.00  0.00     0.007 C 
HETATM    3  C10 UNL     1      -3.216  12.924  16.941  1.00  0.00     0.015 C 
HETATM    4  C11 UNL     1      -2.448  11.843  16.156  1.00  0.00    -0.013 C 
HETATM    5  C12 UNL     1      -2.104  12.481  14.771  1.00  0.00     0.021 C 
HETATM    6  C13 UNL     1      -3.162  10.529  15.851  1.00  0.00    -0.070 C 
HETATM    7  C14 UNL     1      -4.487  10.467  15.632  1.00  0.00    -0.022 C 
HETATM    8  C15 UNL     1      -5.224   9.233  15.218  1.00  0.00     0.034 C 
HETATM    9  C16 UNL     1      -4.398   7.926  15.287  1.00  0.00     0.013 C 
HETATM   10  C17 UNL     1      -5.136   6.704  14.625  1.00  0.00     0.018 C 
HETATM   11  C18 UNL     1      -5.937   7.042  13.351  1.00  0.00     0.023 C 
HETATM   12  C19 UNL     1      -6.130   6.093  15.636  1.00  0.00     0.023 C 
HETATM   13  C20 UNL     1      -4.119   5.608  14.295  1.00  0.00     0.135 C 
HETATM   14  O1  UNL     1      -4.307   4.762  13.421  1.00  0.00    -0.297 OA
HETATM   15  C21 UNL     1      -2.890   5.553  15.160  1.00  0.00     0.080 C 
HETATM   16  C22 UNL     1      -2.078   6.833  15.041  1.00  0.00     0.017 C 
HETATM   17  C23 UNL     1      -2.905   8.145  14.836  1.00  0.00    -0.031 C 
HETATM   18  C24 UNL     1      -2.816   8.541  13.343  1.00  0.00     0.016 C 
HETATM   19  C25 UNL     1      -2.290   9.277  15.757  1.00  0.00     0.024 C 
HETATM   20  C26 UNL     1      -0.807   9.617  15.467  1.00  0.00     0.010 C 
HETATM   21  C27 UNL     1      -0.189  10.703  16.381  1.00  0.00     0.011 C 
HETATM   22  C28 UNL     1      -1.214  11.607  17.102  1.00  0.00    -0.029 C 
HETATM   23  C29 UNL     1      -1.594  10.954  18.469  1.00  0.00     0.016 C 
ENDROOT
BRANCH   1  24
HETATM   24  C6  UNL     1       0.225  13.388  18.549  1.00  0.00    -0.014 C 
HETATM   25  C7  UNL     1      -0.510  13.853  19.811  1.00  0.00     0.010 C 
BRANCH  24  26
HETATM   26  C5  UNL     1       1.087  12.135  18.865  1.00  0.00     0.008 C 
BRANCH  26  27
HETATM   27  C4  UNL     1       0.861  11.561  20.268  1.00  0.00     0.028 C 
BRANCH  27  28
HETATM   28  C3  UNL     1       1.899  12.065  21.236  1.00  0.00    -0.013 C 
HETATM   29  C2  UNL     1       3.004  11.430  21.676  1.00  0.00     0.008 C 
HETATM   30  C1  UNL     1       3.963  12.090  22.625  1.00  0.00     0.055 C 
BRANCH  29  31
HETATM   31  C30 UNL     1       3.304  10.029  21.292  1.00  0.00     0.171 C 
HETATM   32  O2  UNL     1       2.587   9.055  21.423  1.00  0.00    -0.646 OA
BRANCH  31  33
HETATM   33  O3  UNL     1       4.535   9.914  20.761  1.00  0.00    -0.773 OA
HETATM   34  H46 UNL     1       4.602   8.959  20.556  1.00  0.00     0.167 HD
ENDBRANCH  31  33
ENDBRANCH  29  31
ENDBRANCH  27  28
ENDBRANCH  26  27
ENDBRANCH  24  26
ENDBRANCH   1  24
TORSDOF 6
ENDMDL
