MODEL 1
REMARK minimizedAffinity -9.40997982
REMARK CNNscore 0.445707023
REMARK CNNaffinity 7.54480171
REMARK  13 active torsions:
REMARK  status: ('A' for Active; 'I' for Inactive)
REMARK    1  A    between atoms: O1_2  and  C2_3 
REMARK    2  A    between atoms: C8_9  and  O2_10 
REMARK    3  A    between atoms: O2_10  and  C9_11 
REMARK    4  A    between atoms: C10_13  and  C11_14 
REMARK    5  A    between atoms: C11_14  and  O4_15 
REMARK    6  A    between atoms: C12_16  and  O5_17 
REMARK    7  A    between atoms: C13_18  and  O6_19 
REMARK    8  A    between atoms: C14_20  and  O7_21 
REMARK    9  A    between atoms: C24_31  and  C25_32 
REMARK   10  A    between atoms: C25_32  and  C27_34 
REMARK   11  A    between atoms: C27_34  and  C28_35 
REMARK   12  A    between atoms: C29_36  and  C30_37 
REMARK   13  A    between atoms: C30_37  and  O8_40 
ROOT
HETATM    1  C2  UNL     1       0.256  52.266 -19.059  1.00  0.00     0.149 C 
HETATM    2  C3  UNL     1       0.233  52.279 -17.557  1.00  0.00     0.009 C 
HETATM    3  C4  UNL     1      -0.050  51.172 -16.842  1.00  0.00    -0.066 C 
HETATM    4  C5  UNL     1      -0.392  49.918 -17.641  1.00  0.00     0.024 C 
HETATM    5  C6  UNL     1      -0.763  48.711 -16.759  1.00  0.00     0.012 C 
HETATM    6  C7  UNL     1       0.170  48.482 -15.573  1.00  0.00     0.034 C 
HETATM    7  C8  UNL     1       0.787  49.744 -14.952  1.00  0.00     0.136 C 
HETATM    8  C15 UNL     1       0.047  51.070 -15.311  1.00  0.00     0.002 C 
HETATM    9  C16 UNL     1       0.864  52.236 -14.687  1.00  0.00     0.022 C 
HETATM   10  C17 UNL     1      -1.356  51.152 -14.671  1.00  0.00     0.022 C 
HETATM   11  C18 UNL     1      -1.449  50.245 -18.785  1.00  0.00    -0.030 C 
HETATM   12  C19 UNL     1      -2.800  50.658 -18.120  1.00  0.00     0.016 C 
HETATM   13  C20 UNL     1      -1.727  48.952 -19.618  1.00  0.00     0.011 C 
HETATM   14  C21 UNL     1      -2.287  49.086 -21.048  1.00  0.00     0.011 C 
HETATM   15  C22 UNL     1      -2.014  50.422 -21.757  1.00  0.00    -0.032 C 
HETATM   16  C23 UNL     1      -3.289  51.320 -21.631  1.00  0.00     0.016 C 
HETATM   17  C24 UNL     1      -1.666  50.337 -23.285  1.00  0.00    -0.002 C 
HETATM   18  C33 UNL     1      -0.903  51.674 -23.529  1.00  0.00     0.006 C 
HETATM   19  C34 UNL     1      -0.516  52.247 -22.154  1.00  0.00     0.011 C 
HETATM   20  C35 UNL     1      -0.707  51.080 -21.170  1.00  0.00    -0.029 C 
HETATM   21  C36 UNL     1       0.584  50.201 -21.290  1.00  0.00     0.016 C 
HETATM   22  C37 UNL     1      -0.941  51.476 -19.672  1.00  0.00     0.036 C 
ENDROOT
BRANCH   7  23
HETATM   23  O2  UNL     1       0.827  49.594 -13.525  1.00  0.00    -0.352 OA
BRANCH  23  24
HETATM   24  C9  UNL     1      -0.430  49.780 -12.871  1.00  0.00     0.292 C 
HETATM   25  O3  UNL     1      -0.365  50.903 -12.000  1.00  0.00    -0.348 OA
HETATM   26  C10 UNL     1      -1.579  51.159 -11.286  1.00  0.00     0.179 C 
HETATM   27  C12 UNL     1      -1.975  49.965 -10.403  1.00  0.00     0.180 C 
HETATM   28  C13 UNL     1      -1.988  48.661 -11.206  1.00  0.00     0.183 C 
HETATM   29  C14 UNL     1      -0.748  48.487 -12.086  1.00  0.00     0.204 C 
BRANCH  26  30
HETATM   30  C11 UNL     1      -1.390  52.437 -10.450  1.00  0.00     0.198 C 
BRANCH  30  31
HETATM   31  O4  UNL     1      -1.460  53.605 -11.267  1.00  0.00    -0.398 OA
HETATM   32  H16 UNL     1      -1.333  54.371 -10.681  1.00  0.00     0.209 HD
ENDBRANCH  30  31
ENDBRANCH  26  30
BRANCH  27  33
HETATM   33  O5  UNL     1      -3.277  50.189  -9.842  1.00  0.00    -0.390 OA
HETATM   34  H18 UNL     1      -3.873  49.501 -10.204  1.00  0.00     0.210 HD
ENDBRANCH  27  33
BRANCH  28  35
HETATM   35  O6  UNL     1      -3.189  48.582 -12.010  1.00  0.00    -0.390 OA
HETATM   36  H20 UNL     1      -3.225  49.340 -12.618  1.00  0.00     0.210 HD
ENDBRANCH  28  35
BRANCH  29  37
HETATM   37  O7  UNL     1      -0.962  47.377 -12.976  1.00  0.00    -0.388 OA
HETATM   38  H22 UNL     1      -1.926  47.222 -13.017  1.00  0.00     0.210 HD
ENDBRANCH  29  37
ENDBRANCH  23  24
ENDBRANCH   7  23
BRANCH   1  39
HETATM   39  O1  UNL     1       0.177  53.620 -19.525  1.00  0.00    -0.386 OA
HETATM   40  C1  UNL     1       1.349  54.049 -20.208  1.00  0.00     0.202 C 
ENDBRANCH   1  39
BRANCH  17  41
HETATM   41  C25 UNL     1      -2.807  50.106 -24.326  1.00  0.00    -0.010 C 
HETATM   42  C26 UNL     1      -3.687  48.906 -23.948  1.00  0.00     0.010 C 
BRANCH  41  43
HETATM   43  C27 UNL     1      -2.221  49.895 -25.750  1.00  0.00     0.031 C 
BRANCH  43  44
HETATM   44  C28 UNL     1      -1.220  50.951 -26.134  1.00  0.00    -0.027 C 
HETATM   45  C29 UNL     1       0.037  50.699 -26.542  1.00  0.00     0.006 C 
BRANCH  45  46
HETATM   46  C30 UNL     1       1.072  51.731 -26.931  1.00  0.00     0.068 C 
HETATM   47  C31 UNL     1       2.442  51.328 -26.382  1.00  0.00     0.050 C 
HETATM   48  C32 UNL     1       1.119  51.879 -28.451  1.00  0.00     0.050 C 
BRANCH  46  49
HETATM   49  O8  UNL     1       0.725  52.998 -26.373  1.00  0.00    -0.387 OA
HETATM   50  H54 UNL     1       1.427  53.627 -26.613  1.00  0.00     0.211 HD
ENDBRANCH  46  49
ENDBRANCH  45  46
ENDBRANCH  43  44
ENDBRANCH  41  43
ENDBRANCH  17  41
TORSDOF 13
ENDMDL
