MODEL 1
REMARK minimizedAffinity -8.46536446
REMARK CNNscore 0.800751805
REMARK CNNaffinity 7.24721384
REMARK  15 active torsions:
REMARK  status: ('A' for Active; 'I' for Inactive)
REMARK    1  A    between atoms: C2_2  and  C3_3 
REMARK    2  A    between atoms: C2_2  and  C4_6 
REMARK    3  A    between atoms: C3_3  and  O2_5 
REMARK    4  A    between atoms: C4_6  and  C5_8 
REMARK    5  A    between atoms: C5_8  and  O4_9 
REMARK    6  A    between atoms: C5_8  and  C6_10 
REMARK    7  A    between atoms: C6_10  and  C7_11 
REMARK    8  A    between atoms: C7_11  and  C9_13 
REMARK    9  A    between atoms: C11_15  and  O5_16 
REMARK   10  A    between atoms: C14_19  and  O6_20 
REMARK   11  A    between atoms: C21_28  and  C22_29 
REMARK   12  A    between atoms: C22_29  and  C23_30 
REMARK   13  A    between atoms: C23_30  and  O8_31 
REMARK   14  A    between atoms: C33_42  and  C34_43 
REMARK   15  A    between atoms: C35_44  and  C36_45 
ROOT
HETATM    1  C9  UNL     1       0.588  12.942  18.832  1.00  0.00     0.002 C 
HETATM    2  C10 UNL     1       1.362  13.393  17.552  1.00  0.00     0.049 C 
HETATM    3  C11 UNL     1       0.502  13.041  16.311  1.00  0.00     0.088 C 
HETATM    4  C12 UNL     1       1.144  11.989  15.425  1.00  0.00     0.011 C 
HETATM    5  C13 UNL     1       0.400  11.136  14.691  1.00  0.00     0.015 C 
HETATM    6  C14 UNL     1      -1.115  11.225  14.666  1.00  0.00     0.108 C 
HETATM    7  C15 UNL     1      -1.583  11.433  16.096  1.00  0.00    -0.018 C 
HETATM    8  C16 UNL     1      -2.440  10.596  16.725  1.00  0.00     0.003 C 
HETATM    9  C17 UNL     1      -2.735  10.891  18.190  1.00  0.00     0.157 C 
HETATM   10  O7  UNL     1      -3.821  10.585  18.680  1.00  0.00    -0.293 OA
HETATM   11  C18 UNL     1      -1.674  11.570  19.056  1.00  0.00     0.094 C 
HETATM   12  C19 UNL     1      -0.401  11.880  18.264  1.00  0.00    -0.018 C 
HETATM   13  C20 UNL     1       0.398  10.536  18.117  1.00  0.00     0.017 C 
HETATM   14  C21 UNL     1      -0.868  12.557  16.901  1.00  0.00     0.032 C 
HETATM   15  C24 UNL     1      -3.039   9.324  16.122  1.00  0.00    -0.007 C 
HETATM   16  C25 UNL     1      -2.815   8.178  17.162  1.00  0.00     0.021 C 
HETATM   17  C26 UNL     1      -4.541   9.555  15.840  1.00  0.00     0.022 C 
HETATM   18  C27 UNL     1      -5.293   8.282  15.488  1.00  0.00     0.080 C 
HETATM   19  C28 UNL     1      -4.408   7.266  14.812  1.00  0.00     0.135 C 
HETATM   20  O9  UNL     1      -4.689   6.068  14.884  1.00  0.00    -0.297 OA
HETATM   21  C29 UNL     1      -3.230   7.785  13.968  1.00  0.00     0.018 C 
HETATM   22  C30 UNL     1      -2.329   6.579  13.615  1.00  0.00     0.023 C 
HETATM   23  C31 UNL     1      -3.920   8.264  12.673  1.00  0.00     0.023 C 
HETATM   24  C32 UNL     1      -2.347   8.874  14.766  1.00  0.00     0.025 C 
HETATM   25  C33 UNL     1      -1.900  10.097  13.893  1.00  0.00     0.057 C 
ENDROOT
BRANCH   1  26
HETATM   26  C7  UNL     1       1.563  12.574  20.001  1.00  0.00    -0.011 C 
HETATM   27  C8  UNL     1       3.031  12.739  19.601  1.00  0.00     0.010 C 
BRANCH  26  28
HETATM   28  C6  UNL     1       1.297  11.112  20.478  1.00  0.00     0.044 C 
BRANCH  28  29
HETATM   29  C5  UNL     1       2.517  10.177  20.571  1.00  0.00     0.188 C 
BRANCH  29  30
HETATM   30  C4  UNL     1       2.506   9.281  21.829  1.00  0.00     0.169 C 
HETATM   31  O3  UNL     1       1.642   8.414  21.986  1.00  0.00    -0.294 OA
BRANCH  30  32
HETATM   32  C2  UNL     1       3.527   9.590  22.909  1.00  0.00     0.152 C 
HETATM   33  C1  UNL     1       4.619  10.483  22.327  1.00  0.00     0.029 C 
BRANCH  32  34
HETATM   34  C3  UNL     1       2.904  10.227  24.122  1.00  0.00     0.150 C 
HETATM   35  O1  UNL     1       2.446   9.660  25.100  1.00  0.00    -0.649 OA
BRANCH  34  36
HETATM   36  O2  UNL     1       2.825  11.569  24.018  1.00  0.00    -0.776 OA
HETATM   37  H5  UNL     1       2.432  11.853  24.871  1.00  0.00     0.167 HD
ENDBRANCH  34  36
ENDBRANCH  32  34
ENDBRANCH  30  32
ENDBRANCH  29  30
BRANCH  29  38
HETATM   38  O4  UNL     1       2.666   9.493  19.337  1.00  0.00    -0.388 OA
HETATM   39  H7  UNL     1       3.617   9.367  19.173  1.00  0.00     0.210 HD
ENDBRANCH  29  38
ENDBRANCH  28  29
ENDBRANCH  26  28
ENDBRANCH   1  26
BRANCH   3  40
HETATM   40  O5  UNL     1       0.352  14.195  15.493  1.00  0.00    -0.385 OA
HETATM   41  H17 UNL     1       1.096  14.233  14.869  1.00  0.00     0.211 HD
ENDBRANCH   3  40
BRANCH  14  42
HETATM   42  C22 UNL     1      -1.941  13.735  16.984  1.00  0.00     0.044 C 
BRANCH  42  43
HETATM   43  C23 UNL     1      -3.135  13.870  16.036  1.00  0.00     0.165 C 
BRANCH  43  44
HETATM   44  O8  UNL     1      -2.846  14.639  14.887  1.00  0.00    -0.401 OA
HETATM   45  H30 UNL     1      -3.574  14.512  14.256  1.00  0.00     0.209 HD
ENDBRANCH  43  44
ENDBRANCH  42  43
ENDBRANCH  14  42
BRANCH   6  46
HETATM   46  O6  UNL     1      -1.380  12.408  13.893  1.00  0.00    -0.380 OA
HETATM   47  H20 UNL     1      -1.956  12.995  14.403  1.00  0.00     0.211 HD
ENDBRANCH   6  46
BRANCH  25  48
HETATM   48  C34 UNL     1      -1.118   9.658  12.654  1.00  0.00    -0.017 C 
HETATM   49  C35 UNL     1      -0.008   8.904  12.692  1.00  0.00     0.008 C 
BRANCH  49  50
HETATM   50  C36 UNL     1       0.739   8.487  11.498  1.00  0.00    -0.036 A 
HETATM   51  C37 UNL     1       0.063   8.380  10.276  1.00  0.00     0.011 A 
HETATM   52  C38 UNL     1       0.746   8.011   9.115  1.00  0.00     0.001 A 
HETATM   53  C39 UNL     1       2.115   7.756   9.161  1.00  0.00     0.000 A 
HETATM   54  C40 UNL     1       2.801   7.872  10.368  1.00  0.00     0.001 A 
HETATM   55  C41 UNL     1       2.118   8.241  11.532  1.00  0.00     0.011 A 
ENDBRANCH  49  50
ENDBRANCH  25  48
TORSDOF 15
ENDMDL
