MODEL 1
REMARK minimizedAffinity -8.14493847
REMARK CNNscore 0.602366209
REMARK CNNaffinity 6.38038111
REMARK  13 active torsions:
REMARK  status: ('A' for Active; 'I' for Inactive)
REMARK    1  A    between atoms: O1_2  and  C2_3 
REMARK    2  A    between atoms: C2_3  and  C3_5 
REMARK    3  A    between atoms: C3_5  and  C4_6 
REMARK    4  A    between atoms: C3_5  and  N3_13 
REMARK    5  A    between atoms: C4_6  and  C5_7 
REMARK       I    between atoms: N3_13  and  C8_14 
REMARK    6  A    between atoms: C8_14  and  C9_16 
REMARK    7  A    between atoms: C9_16  and  C10_17 
REMARK    8  A    between atoms: C10_17  and  C11_18 
REMARK    9  A    between atoms: C11_18  and  O5_20 
REMARK   10  A    between atoms: O5_20  and  C12_21 
REMARK   11  A    between atoms: C12_21  and  C13_22 
REMARK   12  A    between atoms: C13_22  and  C14_24 
REMARK   13  A    between atoms: C14_24  and  O7_25 
ROOT
HETATM    1  C13 UNL     1      -9.647  47.481 -28.608  1.00  0.00     0.185 C 
HETATM    2  O6  UNL     1      -9.509  48.414 -27.805  1.00  0.00    -0.292 OA
ENDROOT
BRANCH   1   3
HETATM    3  C12 UNL     1      -8.463  46.985 -29.426  1.00  0.00     0.260 C 
BRANCH   3   4
HETATM    4  O5  UNL     1      -7.219  47.448 -28.895  1.00  0.00    -0.314 OA
BRANCH   4   5
HETATM    5  C11 UNL     1      -6.143  47.208 -29.694  1.00  0.00     0.259 C 
HETATM    6  O4  UNL     1      -6.050  46.260 -30.461  1.00  0.00    -0.265 OA
BRANCH   5   7
HETATM    7  C10 UNL     1      -5.088  48.262 -29.474  1.00  0.00     0.120 C 
BRANCH   7   8
HETATM    8  C9  UNL     1      -4.552  48.199 -28.050  1.00  0.00     0.112 C 
BRANCH   8   9
HETATM    9  C8  UNL     1      -3.662  49.377 -27.704  1.00  0.00     0.218 C 
HETATM   10  N3  UNL     1      -3.163  49.300 -26.419  1.00  0.00    -0.347 N 
HETATM   11  H10 UNL     1      -3.652  48.688 -25.774  1.00  0.00     0.163 HD
HETATM   12  O3  UNL     1      -3.425  50.309 -28.462  1.00  0.00    -0.274 OA
BRANCH  10  13
HETATM   13  C3  UNL     1      -2.470  50.446 -25.817  1.00  0.00     0.190 C 
BRANCH  13  14
HETATM   14  C2  UNL     1      -2.550  50.462 -24.279  1.00  0.00     0.281 C 
HETATM   15  O2  UNL     1      -1.585  50.261 -23.546  1.00  0.00    -0.263 OA
BRANCH  14  16
HETATM   16  O1  UNL     1      -3.816  50.695 -23.832  1.00  0.00    -0.325 OA
HETATM   17  C1  UNL     1      -3.897  51.187 -22.494  1.00  0.00     0.213 C 
ENDBRANCH  14  16
ENDBRANCH  13  14
BRANCH  13  18
HETATM   18  C4  UNL     1      -0.997  50.506 -26.261  1.00  0.00     0.093 C 
BRANCH  18  19
HETATM   19  C5  UNL     1      -0.572  51.863 -26.722  1.00  0.00     0.028 A 
HETATM   20  C6  UNL     1       0.265  52.808 -26.170  1.00  0.00     0.114 A 
HETATM   21  N1  UNL     1       0.307  53.933 -26.948  1.00  0.00    -0.360 N 
HETATM   22  C7  UNL     1      -0.457  53.672 -27.983  1.00  0.00     0.180 A 
ATOM     23  H1  UNL     1       0.823  54.792 -26.763  1.00  0.00     0.166 HD
HETATM   24  N2  UNL     1      -1.002  52.423 -27.901  1.00  0.00    -0.354 N 
HETATM   25  H9  UNL     1      -1.629  52.002 -28.577  1.00  0.00     0.166 HD
ENDBRANCH  18  19
ENDBRANCH  13  18
ENDBRANCH  10  13
ENDBRANCH   8   9
ENDBRANCH   7   8
ENDBRANCH   5   7
ENDBRANCH   4   5
ENDBRANCH   3   4
ENDBRANCH   1   3
BRANCH   1  26
HETATM   26  C14 UNL     1     -11.048  46.856 -28.792  1.00  0.00     0.128 C 
HETATM   27  C15 UNL     1     -11.040  45.600 -29.694  1.00  0.00     0.047 C 
HETATM   28  C16 UNL     1     -12.289  44.776 -29.301  1.00  0.00     0.009 C 
HETATM   29  C17 UNL     1     -13.047  45.668 -28.319  1.00  0.00     0.002 C 
HETATM   30  C18 UNL     1     -14.083  45.045 -27.369  1.00  0.00     0.003 C 
HETATM   31  C31 UNL     1     -11.897  46.418 -27.566  1.00  0.00     0.005 C 
HETATM   32  C19 UNL     1     -15.142  44.174 -28.072  1.00  0.00     0.010 C 
HETATM   33  C28 UNL     1     -14.719  46.200 -26.533  1.00  0.00     0.072 C 
HETATM   34  C20 UNL     1     -16.554  44.751 -28.016  1.00  0.00     0.035 C 
HETATM   35  C21 UNL     1     -16.991  45.180 -26.632  1.00  0.00    -0.067 C 
HETATM   36  C22 UNL     1     -18.301  45.185 -26.326  1.00  0.00     0.053 C 
HETATM   37  C26 UNL     1     -15.914  45.704 -25.666  1.00  0.00    -0.009 C 
HETATM   38  C23 UNL     1     -18.799  45.723 -25.039  1.00  0.00     0.149 C 
HETATM   39  O8  UNL     1     -19.971  45.531 -24.726  1.00  0.00    -0.293 OA
HETATM   40  C24 UNL     1     -17.839  46.471 -24.140  1.00  0.00     0.084 C 
HETATM   41  C25 UNL     1     -16.547  46.867 -24.857  1.00  0.00     0.022 C 
HETATM   42  C27 UNL     1     -15.494  44.564 -24.707  1.00  0.00     0.021 C 
HETATM   43  C29 UNL     1     -13.587  46.954 -25.821  1.00  0.00     0.133 C 
HETATM   44  O9  UNL     1     -13.508  47.077 -24.601  1.00  0.00    -0.297 OA
HETATM   45  C30 UNL     1     -12.524  47.551 -26.738  1.00  0.00     0.091 C 
HETATM   46  C32 UNL     1     -11.122  45.480 -26.602  1.00  0.00     0.019 C 
BRANCH  26  47
HETATM   47  O7  UNL     1     -11.819  47.860 -29.502  1.00  0.00    -0.381 OA
HETATM   48  H17 UNL     1     -11.171  48.438 -29.960  1.00  0.00     0.211 HD
ENDBRANCH  26  47
ENDBRANCH   1  26
TORSDOF 13
ENDMDL
