MODEL 1
REMARK minimizedAffinity -8.91430187
REMARK  12 active torsions:
REMARK  status: ('A' for Active; 'I' for Inactive)
REMARK    1  A    between atoms: C2_2  and  C17_19 
REMARK    2  A    between atoms: C3_3  and  C4_4 
REMARK    3  A    between atoms: C4_4  and  C5_5 
REMARK    4  A    between atoms: C5_5  and  C6_6 
REMARK    5  A    between atoms: C12_12  and  O1_13 
REMARK    6  A    between atoms: C17_19  and  C18_20 
REMARK    7  A    between atoms: C19_21  and  C20_22 
REMARK    8  A    between atoms: C20_22  and  C22_24 
REMARK    9  A    between atoms: C22_24  and  C23_26 
REMARK   10  A    between atoms: C23_26  and  O4_27 
REMARK   11  A    between atoms: C23_26  and  C24_28 
REMARK   12  A    between atoms: C24_28  and  C25_29 
ROOT
HETATM    1  C1  UNL     1      -3.603  48.927 -21.321  1.00  0.00     0.043 C 
HETATM    2  C2  UNL     1      -3.932  50.396 -21.277  1.00  0.00    -0.084 C 
HETATM    3  C3  UNL     1      -3.926  51.138 -20.149  1.00  0.00    -0.024 C 
ENDROOT
BRANCH   3   4
HETATM    4  C4  UNL     1      -3.508  50.694 -18.776  1.00  0.00     0.030 C 
BRANCH   4   5
HETATM    5  C5  UNL     1      -2.198  51.281 -18.237  1.00  0.00     0.042 C 
BRANCH   5   6
HETATM    6  C6  UNL     1      -0.871  50.535 -18.539  1.00  0.00     0.065 C 
HETATM    7  C7  UNL     1      -1.024  49.022 -18.304  1.00  0.00     0.046 C 
HETATM    8  C8  UNL     1       0.348  51.026 -17.746  1.00  0.00     0.043 C 
HETATM    9  C9  UNL     1       0.678  52.470 -18.084  1.00  0.00     0.044 C 
HETATM   10  C10 UNL     1       0.681  52.667 -19.572  1.00  0.00    -0.021 A 
HETATM   11  C11 UNL     1       1.328  53.785 -20.120  1.00  0.00     0.046 A 
HETATM   12  C16 UNL     1       0.024  51.765 -20.418  1.00  0.00     0.082 A 
HETATM   13  C12 UNL     1       1.333  53.974 -21.498  1.00  0.00     0.066 A 
HETATM   14  C13 UNL     1       0.696  53.073 -22.342  1.00  0.00     0.046 A 
HETATM   15  C14 UNL     1       0.034  51.959 -21.811  1.00  0.00    -0.025 A 
HETATM   16  C15 UNL     1      -0.652  50.988 -22.729  1.00  0.00     0.051 C 
HETATM   17  O2  UNL     1      -0.632  50.650 -19.963  1.00  0.00    -0.340 OA
BRANCH  13  18
HETATM   18  O1  UNL     1       1.961  55.041 -22.066  1.00  0.00    -0.361 OA
HETATM   19  H17 UNL     1       2.382  55.564 -21.366  1.00  0.00     0.217 HD
ENDBRANCH  13  18
ENDBRANCH   5   6
ENDBRANCH   4   5
ENDBRANCH   3   4
BRANCH   2  20
HETATM   20  C17 UNL     1      -4.311  51.012 -22.615  1.00  0.00     0.060 C 
BRANCH  20  21
HETATM   21  C18 UNL     1      -4.889  49.982 -23.546  1.00  0.00    -0.026 C 
HETATM   22  C19 UNL     1      -4.414  49.453 -24.686  1.00  0.00    -0.019 C 
BRANCH  22  23
HETATM   23  C20 UNL     1      -3.156  49.696 -25.491  1.00  0.00     0.076 C 
HETATM   24  C21 UNL     1      -2.750  48.624 -26.502  1.00  0.00     0.022 C 
BRANCH  23  25
HETATM   25  C22 UNL     1      -3.254  51.076 -26.160  1.00  0.00     0.162 C 
HETATM   26  O3  UNL     1      -3.898  52.011 -25.666  1.00  0.00    -0.294 OA
BRANCH  25  27
HETATM   27  C23 UNL     1      -2.438  51.322 -27.443  1.00  0.00     0.188 C 
BRANCH  27  28
HETATM   28  O4  UNL     1      -2.966  50.573 -28.536  1.00  0.00    -0.388 OA
HETATM   29  H31 UNL     1      -3.802  50.173 -28.216  1.00  0.00     0.210 HD
ENDBRANCH  27  28
BRANCH  27  30
HETATM   30  C24 UNL     1      -0.926  51.076 -27.330  1.00  0.00     0.043 C 
BRANCH  30  31
HETATM   31  C25 UNL     1       0.060  52.044 -28.024  1.00  0.00    -0.020 C 
HETATM   32  C26 UNL     1       1.523  51.815 -27.651  1.00  0.00     0.009 C 
HETATM   33  C27 UNL     1      -0.308  53.516 -27.846  1.00  0.00     0.009 C 
ENDBRANCH  30  31
ENDBRANCH  27  30
ENDBRANCH  25  27
ENDBRANCH  23  25
ENDBRANCH  22  23
ENDBRANCH  20  21
ENDBRANCH   2  20
TORSDOF 12
ENDMDL
