MODEL 1
REMARK minimizedAffinity -8.22215652
REMARK CNNscore 0.437091142
REMARK CNNaffinity 6.99067116
REMARK  8 active torsions:
REMARK  status: ('A' for Active; 'I' for Inactive)
REMARK    1  A    between atoms: C4_4  and  C5_5 
REMARK    2  A    between atoms: C5_5  and  C6_6 
REMARK    3  A    between atoms: C6_6  and  C7_7 
REMARK    4  A    between atoms: C7_7  and  C9_9 
REMARK    5  A    between atoms: C21_21  and  C22_22 
REMARK    6  A    between atoms: C22_22  and  C23_23 
REMARK    7  A    between atoms: C23_23  and  C24_24 
REMARK    8  A    between atoms: C24_24  and  O1_25 
ROOT
HETATM    1  C9  UNL     1       1.759   6.972  13.625  1.00  0.00    -0.002 C 
HETATM    2  C10 UNL     1       1.792   7.500  15.084  1.00  0.00     0.006 C 
HETATM    3  C11 UNL     1       0.388   7.248  15.685  1.00  0.00     0.011 C 
HETATM    4  C12 UNL     1      -0.550   7.303  14.464  1.00  0.00    -0.032 C 
HETATM    5  C13 UNL     1      -0.717   8.815  14.146  1.00  0.00     0.016 C 
HETATM    6  C14 UNL     1      -1.949   6.633  14.616  1.00  0.00     0.003 C 
HETATM    7  C15 UNL     1      -2.811   7.160  15.777  1.00  0.00     0.010 C 
HETATM    8  C16 UNL     1      -4.035   6.266  15.967  1.00  0.00     0.035 C 
HETATM    9  C17 UNL     1      -4.881   6.130  14.691  1.00  0.00    -0.073 C 
HETATM   10  C18 UNL     1      -6.194   6.488  14.711  1.00  0.00    -0.085 C 
HETATM   11  C19 UNL     1      -6.815   7.208  15.897  1.00  0.00     0.043 C 
HETATM   12  C20 UNL     1      -7.228   6.269  13.641  1.00  0.00     0.043 C 
HETATM   13  C21 UNL     1      -3.999   5.531  13.553  1.00  0.00     0.023 C 
HETATM   14  C25 UNL     1      -2.774   6.522  13.250  1.00  0.00    -0.032 C 
HETATM   15  C26 UNL     1      -3.341   7.891  12.780  1.00  0.00     0.016 C 
HETATM   16  C27 UNL     1      -1.842   5.970  12.110  1.00  0.00     0.011 C 
HETATM   17  C28 UNL     1      -0.397   6.538  12.058  1.00  0.00     0.011 C 
HETATM   18  C29 UNL     1       0.288   6.468  13.427  1.00  0.00    -0.032 C 
HETATM   19  C30 UNL     1       0.389   4.926  13.781  1.00  0.00     0.016 C 
ENDROOT
BRANCH   1  20
HETATM   20  C7  UNL     1       2.488   7.776  12.510  1.00  0.00    -0.014 C 
HETATM   21  C8  UNL     1       1.923   9.205  12.437  1.00  0.00     0.010 C 
BRANCH  20  22
HETATM   22  C6  UNL     1       2.644   7.173  11.098  1.00  0.00     0.008 C 
BRANCH  22  23
HETATM   23  C5  UNL     1       3.393   8.007  10.051  1.00  0.00     0.028 C 
BRANCH  23  24
HETATM   24  C4  UNL     1       3.088   7.518   8.659  1.00  0.00    -0.025 C 
HETATM   25  C2  UNL     1       1.933   7.636   7.973  1.00  0.00    -0.091 C 
HETATM   26  C1  UNL     1       1.797   7.045   6.595  1.00  0.00     0.042 C 
HETATM   27  C3  UNL     1       0.700   8.341   8.466  1.00  0.00     0.042 C 
ENDBRANCH  23  24
ENDBRANCH  22  23
ENDBRANCH  20  22
ENDBRANCH   1  20
BRANCH  13  28
HETATM   28  C22 UNL     1      -4.647   4.827  12.327  1.00  0.00     0.012 C 
BRANCH  28  29
HETATM   29  C23 UNL     1      -4.635   3.301  12.222  1.00  0.00     0.027 C 
BRANCH  29  30
HETATM   30  C24 UNL     1      -5.730   2.805  11.281  1.00  0.00     0.164 C 
BRANCH  30  31
HETATM   31  O1  UNL     1      -5.446   1.476  10.863  1.00  0.00    -0.401 OA
HETATM   32  H42 UNL     1      -4.563   1.479  10.454  1.00  0.00     0.209 HD
ENDBRANCH  30  31
ENDBRANCH  29  30
ENDBRANCH  28  29
ENDBRANCH  13  28
TORSDOF 8
ENDMDL
