MODEL 1
REMARK minimizedAffinity -8.87279797
REMARK CNNscore 0.441145301
REMARK CNNaffinity 7.20651102
REMARK  14 active torsions:
REMARK  status: ('A' for Active; 'I' for Inactive)
REMARK    1  A    between atoms: C2_2  and  C3_3 
REMARK    2  A    between atoms: C2_2  and  C35_44 
REMARK    3  A    between atoms: C3_3  and  C4_4 
REMARK    4  A    between atoms: C4_4  and  C5_5 
REMARK    5  A    between atoms: C5_5  and  C6_6 
REMARK    6  A    between atoms: C5_5  and  C7_9 
REMARK    7  A    between atoms: C6_6  and  O2_8 
REMARK    8  A    between atoms: C28_31  and  O4_32 
REMARK    9  A    between atoms: O4_32  and  C29_33 
REMARK   10  A    between atoms: C30_35  and  C31_36 
REMARK   11  A    between atoms: C31_36  and  O6_37 
REMARK   12  A    between atoms: C32_38  and  O7_39 
REMARK   13  A    between atoms: C33_40  and  O8_41 
REMARK   14  A    between atoms: C34_42  and  O9_43 
ROOT
HETATM    1  C7  UNL     1       0.347   7.333  13.486  1.00  0.00     0.009 C 
HETATM    2  C8  UNL     1       0.281   8.868  13.309  1.00  0.00     0.007 C 
HETATM    3  C9  UNL     1      -1.111   9.310  13.815  1.00  0.00     0.015 C 
HETATM    4  C10 UNL     1      -1.732   8.067  14.489  1.00  0.00    -0.010 C 
HETATM    5  C11 UNL     1      -1.211   8.019  15.966  1.00  0.00     0.021 C 
HETATM    6  C12 UNL     1      -3.258   7.933  14.589  1.00  0.00    -0.039 C 
HETATM    7  C13 UNL     1      -3.820   6.695  14.614  1.00  0.00    -0.066 C 
HETATM    8  C14 UNL     1      -2.943   5.424  14.512  1.00  0.00     0.036 C 
HETATM    9  C15 UNL     1      -1.438   5.588  14.216  1.00  0.00     0.015 C 
HETATM   10  C16 UNL     1      -1.153   6.937  13.560  1.00  0.00    -0.028 C 
HETATM   11  C17 UNL     1      -1.782   6.933  12.132  1.00  0.00     0.016 C 
HETATM   12  C18 UNL     1      -5.360   6.462  14.723  1.00  0.00    -0.015 C 
HETATM   13  C19 UNL     1      -5.756   5.402  13.665  1.00  0.00     0.020 C 
HETATM   14  C20 UNL     1      -5.628   5.925  16.157  1.00  0.00     0.021 C 
HETATM   15  C21 UNL     1      -7.097   5.732  16.488  1.00  0.00     0.080 C 
HETATM   16  C22 UNL     1      -7.859   7.020  16.296  1.00  0.00     0.135 C 
HETATM   17  O3  UNL     1      -8.613   7.427  17.182  1.00  0.00    -0.297 OA
HETATM   18  C23 UNL     1      -7.739   7.710  14.930  1.00  0.00     0.018 C 
HETATM   19  C24 UNL     1      -8.626   6.935  13.930  1.00  0.00     0.023 C 
HETATM   20  C25 UNL     1      -8.381   9.121  15.027  1.00  0.00     0.023 C 
HETATM   21  C26 UNL     1      -6.208   7.779  14.489  1.00  0.00     0.016 C 
HETATM   22  C27 UNL     1      -5.497   8.973  15.157  1.00  0.00     0.043 C 
HETATM   23  C28 UNL     1      -4.073   9.212  14.657  1.00  0.00     0.155 C 
ENDROOT
BRANCH  23  24
HETATM   24  O4  UNL     1      -3.430  10.140  15.543  1.00  0.00    -0.349 OA
BRANCH  24  25
HETATM   25  C29 UNL     1      -3.616  11.520  15.191  1.00  0.00     0.292 C 
HETATM   26  O5  UNL     1      -4.534  12.175  16.074  1.00  0.00    -0.348 OA
HETATM   27  C30 UNL     1      -3.888  12.813  17.187  1.00  0.00     0.179 C 
HETATM   28  C32 UNL     1      -3.051  14.013  16.686  1.00  0.00     0.180 C 
HETATM   29  C33 UNL     1      -2.349  13.689  15.346  1.00  0.00     0.183 C 
HETATM   30  C34 UNL     1      -2.211  12.187  15.151  1.00  0.00     0.204 C 
BRANCH  27  31
HETATM   31  C31 UNL     1      -4.947  13.205  18.223  1.00  0.00     0.198 C 
BRANCH  31  32
HETATM   32  O6  UNL     1      -6.087  13.774  17.590  1.00  0.00    -0.398 OA
HETATM   33  H45 UNL     1      -6.551  14.290  18.271  1.00  0.00     0.209 HD
ENDBRANCH  31  32
ENDBRANCH  27  31
BRANCH  28  34
HETATM   34  O7  UNL     1      -3.865  15.181  16.459  1.00  0.00    -0.390 OA
HETATM   35  H47 UNL     1      -3.244  15.931  16.352  1.00  0.00     0.210 HD
ENDBRANCH  28  34
BRANCH  29  36
HETATM   36  O8  UNL     1      -3.076  14.245  14.241  1.00  0.00    -0.390 OA
HETATM   37  H49 UNL     1      -3.862  14.678  14.636  1.00  0.00     0.210 HD
ENDBRANCH  29  36
BRANCH  30  38
HETATM   38  O9  UNL     1      -1.350  11.657  16.174  1.00  0.00    -0.388 OA
HETATM   39  H51 UNL     1      -1.515  10.691  16.169  1.00  0.00     0.210 HD
ENDBRANCH  30  38
ENDBRANCH  24  25
ENDBRANCH  23  24
BRANCH   1  40
HETATM   40  C5  UNL     1       1.272   6.539  12.525  1.00  0.00     0.089 C 
BRANCH  40  41
HETATM   41  C4  UNL     1       0.979   6.639  11.014  1.00  0.00     0.020 C 
BRANCH  41  42
HETATM   42  C3  UNL     1       1.369   7.990  10.373  1.00  0.00     0.034 C 
BRANCH  42  43
HETATM   43  C2  UNL     1       0.901   8.290   8.959  1.00  0.00    -0.086 C 
HETATM   44  C1  UNL     1      -0.386   8.524   8.640  1.00  0.00     0.014 C 
BRANCH  43  45
HETATM   45  C35 UNL     1       1.968   8.359   7.866  1.00  0.00     0.005 C 
HETATM   46  C36 UNL     1       3.384   8.486   8.443  1.00  0.00     0.014 C 
HETATM   47  C37 UNL     1       1.871   7.172   6.904  1.00  0.00     0.014 C 
ENDBRANCH  43  45
ENDBRANCH  42  43
ENDBRANCH  41  42
ENDBRANCH  40  41
BRANCH  40  48
HETATM   48  C6  UNL     1       2.703   6.961  12.820  1.00  0.00     0.144 C 
HETATM   49  O1  UNL     1       3.612   7.037  12.011  1.00  0.00    -0.650 OA
BRANCH  48  50
HETATM   50  O2  UNL     1       2.941   7.205  14.126  1.00  0.00    -0.776 OA
HETATM   51  H8  UNL     1       3.896   7.429  14.156  1.00  0.00     0.167 HD
ENDBRANCH  48  50
ENDBRANCH  40  48
ENDBRANCH   1  40
TORSDOF 14
ENDMDL
