MODEL 1
REMARK minimizedAffinity -9.0939827
REMARK CNNscore 0.51839751
REMARK CNNaffinity 7.60201216
REMARK  11 active torsions:
REMARK  status: ('A' for Active; 'I' for Inactive)
REMARK    1  A    between atoms: C2_2  and  O1_3 
REMARK    2  A    between atoms: O1_3  and  C3_4 
REMARK    3  A    between atoms: C3_4  and  C4_6 
REMARK    4  A    between atoms: C5_7  and  C6_8 
REMARK    5  A    between atoms: C10_13  and  C11_14 
REMARK    6  A    between atoms: C11_14  and  O4_15 
REMARK    7  A    between atoms: C13_18  and  C14_19 
REMARK    8  A    between atoms: C25_32  and  C26_33 
REMARK    9  A    between atoms: C26_33  and  O7_34 
REMARK   10  A    between atoms: C33_42  and  O9_44 
REMARK   11  A    between atoms: C36_46  and  O10_47 
ROOT
HETATM    1  C4  UNL     1      -3.948   6.134  13.417  1.00  0.00     0.165 C 
HETATM    2  C5  UNL     1      -3.793   7.463  13.594  1.00  0.00     0.053 C 
HETATM    3  C7  UNL     1      -2.422   7.974  13.745  1.00  0.00    -0.002 C 
HETATM    4  C8  UNL     1      -2.065   8.949  14.629  1.00  0.00    -0.066 C 
HETATM    5  C9  UNL     1      -0.626   9.229  15.064  1.00  0.00     0.049 C 
HETATM    6  C10 UNL     1      -0.508   9.359  16.591  1.00  0.00     0.084 C 
HETATM    7  C12 UNL     1      -1.407  10.473  17.112  1.00  0.00     0.142 C 
HETATM    8  O5  UNL     1      -1.290  10.887  18.269  1.00  0.00    -0.297 OA
HETATM    9  C13 UNL     1      -2.438  11.017  16.128  1.00  0.00     0.092 C 
HETATM   10  C22 UNL     1      -3.070   9.826  15.379  1.00  0.00     0.052 C 
HETATM   11  C23 UNL     1      -1.410   7.177  12.980  1.00  0.00     0.044 C 
HETATM   12  C24 UNL     1      -1.653   5.777  12.935  1.00  0.00     0.101 C 
HETATM   13  O6  UNL     1      -2.850   5.265  13.407  1.00  0.00    -0.302 OA
HETATM   14  C25 UNL     1      -0.749   4.876  12.355  1.00  0.00     0.034 C 
HETATM   15  C27 UNL     1       0.358   5.437  11.744  1.00  0.00     0.090 C 
HETATM   16  O8  UNL     1       1.324   4.706  11.065  1.00  0.00    -0.341 OA
HETATM   17  C28 UNL     1       1.869   5.728  10.205  1.00  0.00     0.175 C 
HETATM   18  C29 UNL     1       1.914   7.015  11.044  1.00  0.00     0.079 C 
HETATM   19  C30 UNL     1       2.264   8.175  10.172  1.00  0.00    -0.019 C 
HETATM   20  C31 UNL     1       3.013   8.003   9.067  1.00  0.00    -0.027 C 
HETATM   21  C32 UNL     1       3.525   6.653   8.585  1.00  0.00     0.067 C 
HETATM   22  C33 UNL     1       3.238   5.470   9.557  1.00  0.00     0.085 C 
HETATM   23  C34 UNL     1       3.260   4.136   8.814  1.00  0.00     0.049 C 
HETATM   24  C35 UNL     1       0.585   6.821  11.688  1.00  0.00     0.021 C 
HETATM   25  C36 UNL     1      -0.314   7.700  12.266  1.00  0.00     0.091 C 
ENDROOT
BRANCH   2  26
HETATM   26  C6  UNL     1      -4.989   8.331  13.618  1.00  0.00     0.273 C 
HETATM   27  O3  UNL     1      -5.603   8.559  14.652  1.00  0.00    -0.301 OA
ENDBRANCH   2  26
BRANCH   1  28
HETATM   28  C3  UNL     1      -5.285   5.512  13.190  1.00  0.00     0.318 C 
HETATM   29  O2  UNL     1      -6.340   6.127  13.128  1.00  0.00    -0.257 OA
BRANCH  28  30
HETATM   30  O1  UNL     1      -5.132   4.175  13.011  1.00  0.00    -0.316 OA
BRANCH  30  31
HETATM   31  C2  UNL     1      -6.077   3.589  12.107  1.00  0.00     0.175 C 
HETATM   32  C1  UNL     1      -7.148   2.895  12.929  1.00  0.00     0.034 C 
ENDBRANCH  30  31
ENDBRANCH  28  30
ENDBRANCH   1  28
BRANCH  25  33
HETATM   33  O10 UNL     1      -0.089   9.044  12.155  1.00  0.00    -0.354 OA
HETATM   34  C37 UNL     1       1.079   9.420  12.888  1.00  0.00     0.210 C 
ENDBRANCH  25  33
BRANCH   6  35
HETATM   35  C11 UNL     1       0.934   9.608  17.031  1.00  0.00     0.176 C 
BRANCH  35  36
HETATM   36  O4  UNL     1       1.743   8.461  16.777  1.00  0.00    -0.400 OA
HETATM   37  H12 UNL     1       2.671   8.748  16.854  1.00  0.00     0.209 HD
ENDBRANCH  35  36
ENDBRANCH   6  35
BRANCH   9  38
HETATM   38  C14 UNL     1      -3.513  11.899  16.748  1.00  0.00    -0.046 A 
HETATM   39  C15 UNL     1      -4.338  12.714  15.960  1.00  0.00     0.010 A 
HETATM   40  C16 UNL     1      -5.301  13.556  16.529  1.00  0.00     0.031 A 
HETATM   41  C17 UNL     1      -5.414  13.563  17.922  1.00  0.00     0.042 A 
HETATM   42  N1  UNL     1      -6.254  14.281  18.741  1.00  0.00    -0.365 N 
HETATM   43  C20 UNL     1      -4.617  12.769  18.745  1.00  0.00    -0.008 A 
HETATM   44  C18 UNL     1      -6.014  13.970  20.056  1.00  0.00     0.089 A 
HETATM   45  H16 UNL     1      -6.947  14.942  18.415  1.00  0.00     0.165 HD
HETATM   46  C19 UNL     1      -5.006  13.034  20.088  1.00  0.00     0.030 A 
HETATM   47  C21 UNL     1      -3.655  11.929  18.150  1.00  0.00     0.021 A 
ENDBRANCH   9  38
BRANCH  14  48
HETATM   48  C26 UNL     1      -0.980   3.397  12.321  1.00  0.00     0.208 C 
BRANCH  48  49
HETATM   49  O7  UNL     1      -0.949   2.938  10.974  1.00  0.00    -0.396 OA
HETATM   50  H24 UNL     1      -0.060   3.158  10.639  1.00  0.00     0.209 HD
ENDBRANCH  48  49
ENDBRANCH  14  48
BRANCH  22  51
HETATM   51  O9  UNL     1       4.281   5.396  10.538  1.00  0.00    -0.387 OA
HETATM   52  H34 UNL     1       4.535   6.301  10.790  1.00  0.00     0.210 HD
ENDBRANCH  22  51
TORSDOF 11
ENDMDL
