MODEL 1
REMARK minimizedAffinity -7.19127178
REMARK CNNscore 0.653895617
REMARK CNNaffinity 6.59431458
REMARK  6 active torsions:
REMARK  status: ('A' for Active; 'I' for Inactive)
REMARK    1  A    between atoms: C2_2  and  C30_31 
REMARK    2  A    between atoms: C3_3  and  C4_4 
REMARK    3  A    between atoms: C4_4  and  C5_5 
REMARK    4  A    between atoms: C5_5  and  C6_6 
REMARK    5  A    between atoms: C6_6  and  C8_8 
REMARK    6  A    between atoms: C30_31  and  O3_33 
ROOT
HETATM    1  C8  UNL     1      -1.502   8.220  14.150  1.00  0.00    -0.002 C 
HETATM    2  C9  UNL     1      -1.807   7.194  15.274  1.00  0.00     0.007 C 
HETATM    3  C10 UNL     1      -2.222   8.007  16.525  1.00  0.00     0.015 C 
HETATM    4  C11 UNL     1      -1.905   9.477  16.176  1.00  0.00    -0.013 C 
HETATM    5  C12 UNL     1      -0.396   9.693  16.518  1.00  0.00     0.021 C 
HETATM    6  C13 UNL     1      -2.656  10.584  16.908  1.00  0.00    -0.070 C 
HETATM    7  C14 UNL     1      -3.059  10.458  18.186  1.00  0.00    -0.022 C 
HETATM    8  C15 UNL     1      -3.722  11.546  18.981  1.00  0.00     0.034 C 
HETATM    9  C16 UNL     1      -4.116  12.787  18.147  1.00  0.00     0.013 C 
HETATM   10  C17 UNL     1      -4.711  13.960  19.001  1.00  0.00     0.018 C 
HETATM   11  C18 UNL     1      -6.072  13.512  19.596  1.00  0.00     0.023 C 
HETATM   12  C19 UNL     1      -3.846  14.439  20.178  1.00  0.00     0.023 C 
HETATM   13  C20 UNL     1      -4.965  15.169  18.086  1.00  0.00     0.135 C 
HETATM   14  O1  UNL     1      -5.991  15.847  18.152  1.00  0.00    -0.297 OA
HETATM   15  C21 UNL     1      -3.854  15.565  17.143  1.00  0.00     0.080 C 
HETATM   16  C22 UNL     1      -3.458  14.380  16.278  1.00  0.00     0.017 C 
HETATM   17  C23 UNL     1      -2.998  13.144  17.094  1.00  0.00    -0.031 C 
HETATM   18  C24 UNL     1      -1.620  13.439  17.733  1.00  0.00     0.016 C 
HETATM   19  C25 UNL     1      -2.891  11.886  16.131  1.00  0.00     0.024 C 
HETATM   20  C26 UNL     1      -1.942  12.061  14.919  1.00  0.00     0.010 C 
HETATM   21  C27 UNL     1      -1.760  10.816  14.018  1.00  0.00     0.011 C 
HETATM   22  C28 UNL     1      -2.251   9.499  14.649  1.00  0.00    -0.029 C 
HETATM   23  C29 UNL     1      -3.775   9.340  14.353  1.00  0.00     0.016 C 
ENDROOT
BRANCH   1  24
HETATM   24  C6  UNL     1      -1.740   7.785  12.673  1.00  0.00    -0.014 C 
HETATM   25  C7  UNL     1      -1.483   6.309  12.351  1.00  0.00     0.010 C 
BRANCH  24  26
HETATM   26  C5  UNL     1      -0.965   8.693  11.681  1.00  0.00     0.008 C 
BRANCH  26  27
HETATM   27  C4  UNL     1       0.447   8.220  11.329  1.00  0.00     0.028 C 
BRANCH  27  28
HETATM   28  C3  UNL     1       0.698   8.289   9.846  1.00  0.00    -0.013 C 
HETATM   29  C2  UNL     1       1.477   7.472   9.105  1.00  0.00     0.008 C 
HETATM   30  C1  UNL     1       1.587   7.609   7.615  1.00  0.00     0.055 C 
BRANCH  29  31
HETATM   31  C30 UNL     1       2.304   6.412   9.725  1.00  0.00     0.171 C 
HETATM   32  O2  UNL     1       3.505   6.436   9.923  1.00  0.00    -0.646 OA
BRANCH  31  33
HETATM   33  O3  UNL     1       1.559   5.343  10.058  1.00  0.00    -0.773 OA
HETATM   34  H46 UNL     1       2.206   4.734  10.470  1.00  0.00     0.167 HD
ENDBRANCH  31  33
ENDBRANCH  29  31
ENDBRANCH  27  28
ENDBRANCH  26  27
ENDBRANCH  24  26
ENDBRANCH   1  24
TORSDOF 6
ENDMDL
