MODEL 1
REMARK minimizedAffinity -10.0809565
REMARK CNNscore 0.844938099
REMARK CNNaffinity 7.3670001
REMARK  9 active torsions:
REMARK  status: ('A' for Active; 'I' for Inactive)
REMARK    1  A    between atoms: C2_2  and  C30_35 
REMARK    2  A    between atoms: C3_3  and  C4_4 
REMARK    3  A    between atoms: C4_4  and  O1_5 
REMARK    4  A    between atoms: C4_4  and  C5_6 
REMARK    5  A    between atoms: C5_6  and  C6_7 
REMARK    6  A    between atoms: C6_7  and  C8_9 
REMARK    7  A    between atoms: C10_11  and  O2_12 
REMARK    8  A    between atoms: C29_33  and  O5_34 
REMARK    9  A    between atoms: C30_35  and  O7_37 
ROOT
HETATM    1  C8  UNL     1      -0.638  49.569 -18.332  1.00  0.00     0.001 C 
HETATM    2  C9  UNL     1      -1.596  48.392 -17.973  1.00  0.00     0.038 C 
HETATM    3  C10 UNL     1      -2.711  48.379 -19.032  1.00  0.00     0.132 C 
HETATM    4  C11 UNL     1      -2.127  49.184 -20.221  1.00  0.00     0.017 C 
HETATM    5  C12 UNL     1      -1.129  48.261 -20.999  1.00  0.00     0.023 C 
HETATM    6  C13 UNL     1      -3.051  49.746 -21.313  1.00  0.00    -0.029 C 
HETATM    7  C14 UNL     1      -2.691  50.851 -22.022  1.00  0.00     0.002 C 
HETATM    8  C15 UNL     1      -1.443  51.621 -21.607  1.00  0.00     0.157 C 
HETATM    9  O3  UNL     1      -1.059  52.599 -22.248  1.00  0.00    -0.293 OA
HETATM   10  C16 UNL     1      -0.624  51.182 -20.399  1.00  0.00     0.094 C 
HETATM   11  C17 UNL     1      -1.449  50.356 -19.416  1.00  0.00    -0.019 C 
HETATM   12  C18 UNL     1      -2.474  51.306 -18.720  1.00  0.00     0.017 C 
HETATM   13  C19 UNL     1      -3.481  51.380 -23.250  1.00  0.00    -0.008 C 
HETATM   14  C20 UNL     1      -4.282  52.615 -22.756  1.00  0.00     0.021 C 
HETATM   15  C21 UNL     1      -2.557  51.845 -24.423  1.00  0.00     0.022 C 
HETATM   16  C22 UNL     1      -3.195  51.729 -25.800  1.00  0.00     0.080 C 
HETATM   17  C23 UNL     1      -3.542  50.294 -26.114  1.00  0.00     0.135 C 
HETATM   18  O4  UNL     1      -3.535  49.898 -27.282  1.00  0.00    -0.297 OA
HETATM   19  C24 UNL     1      -3.930  49.382 -24.937  1.00  0.00     0.018 C 
HETATM   20  C25 UNL     1      -5.015  48.410 -25.456  1.00  0.00     0.023 C 
HETATM   21  C26 UNL     1      -2.695  48.545 -24.576  1.00  0.00     0.023 C 
HETATM   22  C27 UNL     1      -4.503  50.312 -23.808  1.00  0.00     0.016 C 
HETATM   23  C28 UNL     1      -5.218  49.607 -22.653  1.00  0.00     0.043 C 
HETATM   24  C29 UNL     1      -4.283  48.935 -21.657  1.00  0.00     0.149 C 
ENDROOT
BRANCH   1  25
HETATM   25  C6  UNL     1      -0.110  50.294 -17.055  1.00  0.00    -0.011 C 
HETATM   26  C7  UNL     1      -1.239  50.672 -16.091  1.00  0.00     0.010 C 
BRANCH  25  27
HETATM   27  C5  UNL     1       0.679  51.571 -17.462  1.00  0.00     0.040 C 
BRANCH  27  28
HETATM   28  C4  UNL     1       1.270  52.401 -16.309  1.00  0.00     0.142 C 
BRANCH  28  29
HETATM   29  C3  UNL     1       2.025  51.564 -15.319  1.00  0.00     0.018 C 
HETATM   30  C2  UNL     1       3.361  51.516 -15.140  1.00  0.00     0.010 C 
HETATM   31  C1  UNL     1       4.392  52.267 -15.926  1.00  0.00     0.055 C 
BRANCH  30  32
HETATM   32  C30 UNL     1       3.836  50.620 -14.058  1.00  0.00     0.171 C 
HETATM   33  O6  UNL     1       4.791  49.863 -14.113  1.00  0.00    -0.646 OA
BRANCH  32  34
HETATM   34  O7  UNL     1       3.091  50.722 -12.944  1.00  0.00    -0.773 OA
HETATM   35  H44 UNL     1       3.514  50.092 -12.325  1.00  0.00     0.167 HD
ENDBRANCH  32  34
ENDBRANCH  30  32
ENDBRANCH  28  29
BRANCH  28  36
HETATM   36  O1  UNL     1       2.187  53.339 -16.873  1.00  0.00    -0.392 OA
HETATM   37  H6  UNL     1       3.030  52.879 -17.040  1.00  0.00     0.210 HD
ENDBRANCH  28  36
ENDBRANCH  27  28
ENDBRANCH  25  27
ENDBRANCH   1  25
BRANCH   3  38
HETATM   38  O2  UNL     1      -3.088  47.052 -19.382  1.00  0.00    -0.394 OA
HETATM   39  H17 UNL     1      -3.288  46.581 -18.550  1.00  0.00     0.210 HD
ENDBRANCH   3  38
BRANCH  24  40
HETATM   40  O5  UNL     1      -5.071  48.712 -20.496  1.00  0.00    -0.391 OA
HETATM   41  H43 UNL     1      -4.842  47.813 -20.188  1.00  0.00     0.210 HD
ENDBRANCH  24  40
TORSDOF 9
ENDMDL
