MODEL 1
REMARK minimizedAffinity -7.77999973
REMARK CNNscore 0.456726044
REMARK CNNaffinity 6.15082026
REMARK  2 active torsions:
REMARK  status: ('A' for Active; 'I' for Inactive)
REMARK    1  A    between atoms: C21_27  and  C22_28 
REMARK    2  A    between atoms: C22_28  and  O7_30 
ROOT
HETATM    1  C1  UNL     1       0.878  52.205 -13.953  1.00  0.00     0.043 C 
HETATM    2  C2  UNL     1       1.105  51.681 -12.556  1.00  0.00    -0.076 C 
HETATM    3  C3  UNL     1       1.929  52.370 -11.741  1.00  0.00     0.084 C 
HETATM    4  C4  UNL     1       2.366  52.022 -10.364  1.00  0.00     0.283 C 
HETATM    5  O1  UNL     1       2.128  51.002  -9.747  1.00  0.00    -0.260 OA
HETATM    6  O2  UNL     1       3.108  53.071  -9.929  1.00  0.00    -0.317 OA
HETATM    7  C5  UNL     1       3.606  53.007  -8.584  1.00  0.00     0.195 C 
HETATM    8  C6  UNL     1       4.198  54.417  -8.173  1.00  0.00     0.053 C 
HETATM    9  C7  UNL     1       4.351  54.380  -6.590  1.00  0.00     0.159 C 
HETATM   10  C8  UNL     1       5.671  54.772  -5.984  1.00  0.00     0.011 C 
HETATM   11  C9  UNL     1       6.797  54.943  -6.694  1.00  0.00    -0.054 C 
HETATM   12  C10 UNL     1       8.079  55.362  -6.030  1.00  0.00     0.046 C 
HETATM   13  C11 UNL     1       6.847  54.776  -8.149  1.00  0.00     0.180 A 
HETATM   14  O3  UNL     1       6.224  55.725  -9.017  1.00  0.00    -0.370 OA
HETATM   15  C12 UNL     1       5.564  54.462  -8.891  1.00  0.00     0.170 A 
HETATM   16  O4  UNL     1       3.326  55.074  -5.850  1.00  0.00    -0.372 OA
HETATM   17  C13 UNL     1       2.849  56.338  -6.340  1.00  0.00     0.162 C 
HETATM   18  C14 UNL     1       1.443  56.099  -6.881  1.00  0.00     0.068 C 
HETATM   19  C15 UNL     1       1.726  55.282  -8.159  1.00  0.00     0.147 C 
HETATM   20  O5  UNL     1       0.791  55.525  -9.217  1.00  0.00    -0.312 OA
HETATM   21  C16 UNL     1      -0.422  54.939  -9.026  1.00  0.00     0.283 C 
HETATM   22  O6  UNL     1      -0.905  54.635  -7.949  1.00  0.00    -0.260 OA
HETATM   23  C17 UNL     1      -0.977  54.611 -10.356  1.00  0.00     0.082 C 
HETATM   24  C18 UNL     1      -1.667  53.492 -10.640  1.00  0.00     0.006 C 
HETATM   25  C19 UNL     1      -2.066  52.467  -9.702  1.00  0.00    -0.001 C 
HETATM   26  C20 UNL     1      -2.520  51.230  -9.961  1.00  0.00     0.007 C 
HETATM   27  C21 UNL     1      -2.693  50.431 -11.228  1.00  0.00     0.172 C 
HETATM   28  O8  UNL     1      -1.966  50.998 -12.328  1.00  0.00    -0.379 OA
HETATM   29  C24 UNL     1      -0.955  50.130 -12.849  1.00  0.00     0.173 C 
HETATM   30  C25 UNL     1       0.413  50.376 -12.190  1.00  0.00     0.060 C 
HETATM   31  C26 UNL     1       3.240  55.631  -8.583  1.00  0.00     0.034 C 
HETATM   32  C27 UNL     1       3.324  56.085 -10.048  1.00  0.00     0.022 C 
HETATM   33  C28 UNL     1       3.513  56.750  -7.595  1.00  0.00     0.119 A 
HETATM   34  C29 UNL     1       3.686  58.218  -7.948  1.00  0.00     0.210 A 
HETATM   35  O9  UNL     1       4.776  57.390  -7.514  1.00  0.00    -0.371 OA
ENDROOT
BRANCH  27  36
HETATM   36  C22 UNL     1      -4.188  50.336 -11.632  1.00  0.00     0.146 C 
HETATM   37  C23 UNL     1      -5.107  50.337 -10.415  1.00  0.00     0.042 C 
BRANCH  36  38
HETATM   38  O7  UNL     1      -4.441  49.120 -12.349  1.00  0.00    -0.393 OA
HETATM   39  H27 UNL     1      -3.853  48.454 -11.941  1.00  0.00     0.210 HD
ENDBRANCH  36  38
ENDBRANCH  27  36
TORSDOF 2
ENDMDL
