MODEL 1
REMARK minimizedAffinity -9.58632183
REMARK  6 active torsions:
REMARK  status: ('A' for Active; 'I' for Inactive)
REMARK    1  A    between atoms: C2_2  and  C3_3 
REMARK    2  A    between atoms: C3_3  and  C4_4 
REMARK    3  A    between atoms: C3_3  and  C27_28 
REMARK    4  A    between atoms: C5_5  and  C6_6 
REMARK    5  A    between atoms: C6_6  and  C8_8 
REMARK    6  A    between atoms: C16_16  and  O1_17 
ROOT
HETATM    1  C8  UNL     1       0.219   6.245  11.670  1.00  0.00    -0.002 C 
HETATM    2  C9  UNL     1      -0.773   5.220  12.259  1.00  0.00     0.040 C 
HETATM    3  C10 UNL     1      -1.821   6.115  12.855  1.00  0.00    -0.068 C 
HETATM    4  C11 UNL     1      -3.152   6.009  12.695  1.00  0.00    -0.072 C 
HETATM    5  C12 UNL     1      -3.864   4.765  12.226  1.00  0.00     0.035 C 
HETATM    6  C13 UNL     1      -4.924   4.351  13.256  1.00  0.00     0.010 C 
HETATM    7  C14 UNL     1      -5.867   5.516  13.609  1.00  0.00    -0.003 C 
HETATM    8  C15 UNL     1      -6.983   5.076  14.564  1.00  0.00     0.037 C 
HETATM    9  C16 UNL     1      -7.977   6.212  14.802  1.00  0.00     0.118 C 
HETATM   10  C17 UNL     1      -7.295   7.498  15.262  1.00  0.00     0.032 C 
HETATM   11  C18 UNL     1      -6.145   7.914  14.341  1.00  0.00     0.012 C 
HETATM   12  C19 UNL     1      -5.096   6.792  14.117  1.00  0.00    -0.033 C 
HETATM   13  C20 UNL     1      -4.365   6.526  15.455  1.00  0.00     0.016 C 
HETATM   14  C21 UNL     1      -4.087   7.175  12.979  1.00  0.00     0.023 C 
HETATM   15  C22 UNL     1      -3.331   8.518  13.064  1.00  0.00     0.011 C 
HETATM   16  C23 UNL     1      -2.025   8.476  13.847  1.00  0.00     0.014 C 
HETATM   17  C24 UNL     1      -1.112   7.291  13.484  1.00  0.00    -0.020 C 
HETATM   18  C25 UNL     1      -0.368   6.871  14.775  1.00  0.00     0.020 C 
HETATM   19  C26 UNL     1      -0.088   7.596  12.380  1.00  0.00     0.019 C 
ENDROOT
BRANCH   1  20
HETATM   20  C6  UNL     1       1.698   5.799  11.756  1.00  0.00     0.008 C 
HETATM   21  C7  UNL     1       2.581   6.913  12.336  1.00  0.00     0.014 C 
BRANCH  20  22
HETATM   22  C5  UNL     1       2.240   5.433  10.389  1.00  0.00    -0.026 C 
HETATM   23  C4  UNL     1       2.528   6.250   9.361  1.00  0.00    -0.025 C 
BRANCH  23  24
HETATM   24  C3  UNL     1       2.424   7.762   9.301  1.00  0.00     0.011 C 
BRANCH  24  25
HETATM   25  C2  UNL     1       3.823   8.395   9.099  1.00  0.00     0.004 C 
HETATM   26  C1  UNL     1       4.735   8.260  10.313  1.00  0.00     0.006 C 
ENDBRANCH  24  25
BRANCH  24  27
HETATM   27  C27 UNL     1       1.434   8.255   8.203  1.00  0.00    -0.015 C 
HETATM   28  C28 UNL     1      -0.003   8.348   8.728  1.00  0.00     0.010 C 
HETATM   29  C29 UNL     1       1.454   7.424   6.915  1.00  0.00     0.010 C 
ENDBRANCH  24  27
ENDBRANCH  23  24
ENDBRANCH  20  22
ENDBRANCH   1  20
BRANCH   9  30
HETATM   30  O1  UNL     1      -8.920   5.791  15.782  1.00  0.00    -0.396 OA
HETATM   31  H24 UNL     1      -9.548   6.522  15.919  1.00  0.00     0.210 HD
ENDBRANCH   9  30
TORSDOF 6
ENDMDL
