MODEL 1
REMARK minimizedAffinity -10.591485
REMARK CNNscore 0.613970399
REMARK CNNaffinity 7.63912964
REMARK  5 active torsions:
REMARK  status: ('A' for Active; 'I' for Inactive)
REMARK    1  A    between atoms: C2_2  and  C3_3 
REMARK    2  A    between atoms: C20_20  and  O1_21 
REMARK    3  A    between atoms: O1_21  and  C21_22 
REMARK    4  A    between atoms: C21_22  and  C22_24 
REMARK    5  A    between atoms: C22_24  and  C23_25 
ROOT
HETATM    1  C3  UNL     1      -7.908   5.479  14.169  1.00  0.00     0.012 C 
HETATM    2  C4  UNL     1      -9.204   6.158  14.687  1.00  0.00     0.009 C 
HETATM    3  C5  UNL     1      -8.818   7.586  15.110  1.00  0.00     0.010 C 
HETATM    4  C6  UNL     1      -7.298   7.525  15.312  1.00  0.00    -0.039 C 
HETATM    5  C7  UNL     1      -7.012   6.903  16.704  1.00  0.00     0.015 C 
HETATM    6  C8  UNL     1      -6.589   8.879  15.199  1.00  0.00     0.010 C 
HETATM    7  C9  UNL     1      -5.057   8.713  15.132  1.00  0.00     0.011 C 
HETATM    8  C10 UNL     1      -4.549   7.714  14.030  1.00  0.00    -0.032 C 
HETATM    9  C11 UNL     1      -4.820   8.440  12.667  1.00  0.00     0.016 C 
HETATM   10  C12 UNL     1      -5.375   6.364  14.102  1.00  0.00    -0.000 C 
HETATM   11  C13 UNL     1      -4.929   5.378  13.016  1.00  0.00     0.006 C 
HETATM   12  C14 UNL     1      -3.427   5.088  13.052  1.00  0.00     0.006 C 
HETATM   13  C15 UNL     1      -2.547   6.359  13.042  1.00  0.00     0.003 C 
HETATM   14  C16 UNL     1      -0.983   6.086  12.871  1.00  0.00    -0.035 C 
HETATM   15  C17 UNL     1      -0.421   5.202  14.010  1.00  0.00     0.016 C 
HETATM   16  C18 UNL     1      -0.751   5.324  11.530  1.00  0.00     0.012 C 
HETATM   17  C19 UNL     1       0.709   5.257  11.087  1.00  0.00     0.034 C 
HETATM   18  C20 UNL     1       1.362   6.635  10.998  1.00  0.00     0.140 C 
HETATM   19  C26 UNL     1       1.240   7.463  12.315  1.00  0.00    -0.017 C 
HETATM   20  C27 UNL     1       1.714   8.908  11.992  1.00  0.00     0.018 C 
HETATM   21  C28 UNL     1       2.196   6.939  13.406  1.00  0.00     0.018 C 
HETATM   22  C29 UNL     1      -0.274   7.488  12.749  1.00  0.00     0.004 C 
HETATM   23  C30 UNL     1      -0.584   8.378  13.969  1.00  0.00     0.007 C 
HETATM   24  C31 UNL     1      -2.088   8.638  14.101  1.00  0.00     0.011 C 
HETATM   25  C32 UNL     1      -2.967   7.360  14.195  1.00  0.00    -0.032 C 
HETATM   26  C33 UNL     1      -2.706   6.744  15.603  1.00  0.00     0.016 C 
HETATM   27  C34 UNL     1      -6.896   6.642  14.105  1.00  0.00     0.006 C 
ENDROOT
BRANCH  18  28
HETATM   28  O1  UNL     1       2.750   6.408  10.668  1.00  0.00    -0.315 OA
BRANCH  28  29
HETATM   29  C21 UNL     1       3.094   6.396   9.352  1.00  0.00     0.259 C 
HETATM   30  O2  UNL     1       3.337   5.401   8.683  1.00  0.00    -0.265 OA
BRANCH  29  31
HETATM   31  C22 UNL     1       3.170   7.805   8.817  1.00  0.00     0.115 C 
BRANCH  31  32
HETATM   32  C23 UNL     1       2.097   8.111   7.765  1.00  0.00    -0.013 C 
HETATM   33  C24 UNL     1       2.021   6.971   6.749  1.00  0.00     0.010 C 
HETATM   34  C25 UNL     1       0.725   8.322   8.409  1.00  0.00     0.010 C 
ENDBRANCH  31  32
ENDBRANCH  29  31
ENDBRANCH  28  29
ENDBRANCH  18  28
BRANCH   1  35
HETATM   35  C2  UNL     1      -8.160   4.799  12.849  1.00  0.00    -0.032 C 
HETATM   36  C1  UNL     1      -8.083   3.474  12.660  1.00  0.00     0.007 C 
ENDBRANCH   1  35
TORSDOF 5
ENDMDL
