MODEL 1
REMARK minimizedAffinity -8.72270393
REMARK  7 active torsions:
REMARK  status: ('A' for Active; 'I' for Inactive)
REMARK    1  A    between atoms: C3_3  and  C5_5 
REMARK    2  A    between atoms: C6_6  and  C7_7 
REMARK    3  A    between atoms: C8_8  and  C9_9 
REMARK    4  A    between atoms: C10_10  and  C12_12 
REMARK    5  A    between atoms: C12_12  and  C13_14 
REMARK    6  A    between atoms: C13_14  and  C15_16 
REMARK    7  A    between atoms: C15_16  and  O2_17 
ROOT
HETATM    1  C5  UNL     1      -5.589   4.561  13.924  1.00  0.00     0.058 C 
HETATM    2  C6  UNL     1      -4.217   5.042  13.341  1.00  0.00     0.024 C 
HETATM    3  C16 UNL     1      -3.377   3.836  12.824  1.00  0.00     0.003 C 
HETATM    4  C17 UNL     1      -1.959   4.269  12.385  1.00  0.00     0.041 C 
HETATM    5  C18 UNL     1      -1.194   3.180  11.701  1.00  0.00     0.157 A 
HETATM    6  O3  UNL     1      -1.486   3.072  10.295  1.00  0.00    -0.370 OA
HETATM    7  C19 UNL     1      -1.884   1.971  11.118  1.00  0.00     0.084 A 
HETATM    8  C20 UNL     1      -1.102   0.722  10.861  1.00  0.00     0.049 C 
HETATM    9  C21 UNL     1      -3.367   1.821  11.290  1.00  0.00     0.048 C 
HETATM   10  C22 UNL     1      -4.088   3.137  11.638  1.00  0.00     0.025 C 
HETATM   11  C23 UNL     1      -5.538   2.862  11.919  1.00  0.00     0.162 A 
HETATM   12  O4  UNL     1      -6.396   3.986  11.637  1.00  0.00    -0.368 OA
HETATM   13  C24 UNL     1      -6.305   3.580  13.008  1.00  0.00     0.092 A 
HETATM   14  C25 UNL     1      -7.548   2.927  13.535  1.00  0.00     0.049 C 
ENDROOT
BRANCH   2  15
HETATM   15  C7  UNL     1      -3.444   5.816  14.403  1.00  0.00    -0.021 C 
HETATM   16  C8  UNL     1      -2.544   6.801  14.236  1.00  0.00    -0.003 C 
BRANCH  16  17
HETATM   17  C9  UNL     1      -2.131   7.377  12.973  1.00  0.00     0.010 C 
HETATM   18  C10 UNL     1      -0.881   7.751  12.642  1.00  0.00    -0.016 C 
HETATM   19  C11 UNL     1       0.344   7.637  13.504  1.00  0.00     0.052 C 
BRANCH  18  20
HETATM   20  C12 UNL     1      -0.611   8.380  11.296  1.00  0.00     0.161 C 
HETATM   21  O1  UNL     1      -1.313   9.336  10.957  1.00  0.00    -0.292 OA
BRANCH  20  22
HETATM   22  C13 UNL     1       0.477   7.809  10.375  1.00  0.00     0.080 C 
HETATM   23  C14 UNL     1       0.623   6.299  10.594  1.00  0.00     0.020 C 
BRANCH  22  24
HETATM   24  C15 UNL     1       0.205   8.118   8.900  1.00  0.00     0.176 C 
BRANCH  24  25
HETATM   25  O2  UNL     1      -0.485   9.353   8.753  1.00  0.00    -0.400 OA
HETATM   26  H22 UNL     1      -0.741   9.433   7.818  1.00  0.00     0.209 HD
ENDBRANCH  24  25
ENDBRANCH  22  24
ENDBRANCH  20  22
ENDBRANCH  18  20
ENDBRANCH  16  17
ENDBRANCH   2  15
BRANCH   1  27
HETATM   27  C3  UNL     1      -6.480   5.738  14.372  1.00  0.00    -0.080 C 
HETATM   28  C2  UNL     1      -6.955   5.784  15.634  1.00  0.00    -0.028 C 
HETATM   29  C1  UNL     1      -7.860   6.810  16.241  1.00  0.00     0.036 C 
HETATM   30  C4  UNL     1      -6.780   6.785  13.329  1.00  0.00     0.043 C 
ENDBRANCH   1  27
TORSDOF 7
ENDMDL
