MODEL 1
REMARK minimizedAffinity -7.5996151
REMARK CNNscore 0.554589152
REMARK CNNaffinity 6.62387896
REMARK  4 active torsions:
REMARK  status: ('A' for Active; 'I' for Inactive)
REMARK    1  A    between atoms: C7_11  and  O3_12 
REMARK    2  A    between atoms: C10_16  and  C11_17 
REMARK    3  A    between atoms: C21_28  and  C22_29 
REMARK    4  A    between atoms: C28_37  and  O8_38 
ROOT
HETATM    1  C1  UNL     1       9.121  58.337  -4.896  1.00  0.00     0.040 C 
HETATM    2  C2  UNL     1       8.195  58.429  -3.690  1.00  0.00     0.124 C 
HETATM    3  C3  UNL     1       8.049  57.129  -2.891  1.00  0.00     0.081 C 
HETATM    4  C4  UNL     1       6.998  56.167  -3.450  1.00  0.00     0.162 C 
HETATM    5  N1  UNL     1       7.505  55.434  -4.618  1.00  0.00    -0.336 N 
HETATM    6  C5  UNL     1       7.087  54.125  -4.742  1.00  0.00     0.229 C 
HETATM    7  O1  UNL     1       7.130  53.525  -5.806  1.00  0.00    -0.273 OA
HETATM    8  C6  UNL     1       6.573  53.531  -3.454  1.00  0.00     0.198 C 
HETATM    9  S1  UNL     1       6.747  54.816  -2.266  1.00  0.00    -0.021 S 
HETATM   10  O2  UNL     1       5.583  54.920  -1.423  1.00  0.00    -0.270 OA
HETATM   11  C7  UNL     1       5.651  56.916  -3.735  1.00  0.00     0.251 C 
HETATM   12  O4  UNL     1       4.730  55.995  -4.354  1.00  0.00    -0.340 OA
HETATM   13  C8  UNL     1       4.173  56.521  -5.568  1.00  0.00     0.156 C 
HETATM   14  C9  UNL     1       3.280  55.464  -6.228  1.00  0.00     0.056 C 
HETATM   15  C10 UNL     1       2.633  55.962  -7.550  1.00  0.00     0.043 C 
HETATM   16  C12 UNL     1       3.666  56.675  -8.438  1.00  0.00    -0.065 C 
HETATM   17  C13 UNL     1       3.683  56.533  -9.774  1.00  0.00    -0.022 C 
HETATM   18  C14 UNL     1       2.725  55.698 -10.560  1.00  0.00     0.035 C 
HETATM   19  C15 UNL     1       1.533  55.142  -9.744  1.00  0.00     0.030 C 
HETATM   20  C16 UNL     1       2.002  54.732  -8.323  1.00  0.00     0.012 C 
HETATM   21  C17 UNL     1       0.898  53.994  -7.537  1.00  0.00     0.007 C 
HETATM   22  C18 UNL     1       0.287  52.844  -8.330  1.00  0.00     0.013 C 
HETATM   23  C19 UNL     1      -0.300  53.288  -9.701  1.00  0.00    -0.005 C 
HETATM   24  C20 UNL     1      -1.550  54.157  -9.457  1.00  0.00     0.019 C 
HETATM   25  C21 UNL     1      -0.597  52.004 -10.553  1.00  0.00     0.028 C 
HETATM   26  C26 UNL     1       0.783  51.636 -11.145  1.00  0.00     0.013 C 
HETATM   27  C27 UNL     1       1.677  52.878 -11.042  1.00  0.00     0.040 C 
HETATM   28  C28 UNL     1       0.788  54.025 -10.529  1.00  0.00     0.070 C 
HETATM   29  C29 UNL     1       4.687  57.581  -7.777  1.00  0.00     0.069 C 
HETATM   30  C30 UNL     1       5.298  56.933  -6.540  1.00  0.00     0.158 C 
HETATM   31  O9  UNL     1       6.287  57.803  -5.958  1.00  0.00    -0.347 OA
HETATM   32  C31 UNL     1       5.964  58.173  -4.622  1.00  0.00     0.326 C 
HETATM   33  O10 UNL     1       6.945  59.017  -4.028  1.00  0.00    -0.351 OA
HETATM   34  H7  UNL     1       7.703  55.907  -5.496  1.00  0.00     0.164 HD
HETATM   35  H10 UNL     1       7.856  54.621  -1.517  1.00  0.00     0.128 HD
ENDROOT
BRANCH  11  36
HETATM   36  O3  UNL     1       5.078  57.343  -2.494  1.00  0.00    -0.359 OA
HETATM   37  H11 UNL     1       4.515  58.119  -2.669  1.00  0.00     0.213 HD
ENDBRANCH  11  36
BRANCH  15  38
HETATM   38  C11 UNL     1       1.550  56.992  -7.154  1.00  0.00     0.245 C 
HETATM   39  O5  UNL     1       0.744  56.842  -6.230  1.00  0.00    -0.306 OA
ENDBRANCH  15  38
BRANCH  28  40
HETATM   40  O8  UNL     1       0.171  54.635 -11.669  1.00  0.00    -0.389 OA
HETATM   41  H36 UNL     1       0.858  54.960 -12.277  1.00  0.00     0.210 HD
ENDBRANCH  28  40
BRANCH  25  42
HETATM   42  C22 UNL     1      -1.683  52.086 -11.600  1.00  0.00    -0.045 A 
HETATM   43  C23 UNL     1      -1.661  51.704 -12.879  1.00  0.00     0.087 A 
HETATM   44  C24 UNL     1      -2.975  51.997 -13.448  1.00  0.00     0.283 A 
HETATM   45  O6  UNL     1      -3.294  51.801 -14.605  1.00  0.00    -0.260 OA
HETATM   46  O7  UNL     1      -3.772  52.524 -12.477  1.00  0.00    -0.314 OA
HETATM   47  C25 UNL     1      -3.036  52.598 -11.260  1.00  0.00     0.213 A 
ENDBRANCH  25  42
TORSDOF 4
ENDMDL
