MODEL 1
REMARK minimizedAffinity -10.2627716
REMARK  10 active torsions:
REMARK  status: ('A' for Active; 'I' for Inactive)
REMARK    1  A    between atoms: C2_2  and  C3_3 
REMARK    2  A    between atoms: C2_2  and  C9_11 
REMARK    3  A    between atoms: C3_3  and  C4_4 
REMARK    4  A    between atoms: C4_4  and  C5_5 
REMARK    5  A    between atoms: C5_5  and  O1_6 
REMARK    6  A    between atoms: C5_5  and  C6_7 
REMARK    7  A    between atoms: C6_7  and  O2_10 
REMARK    8  A    between atoms: C12_14  and  C13_15 
REMARK    9  A    between atoms: C13_15  and  O4_17 
REMARK   10  A    between atoms: C21_25  and  O5_26 
ROOT
HETATM    1  C9  UNL     1       0.796   7.468  13.121  1.00  0.00    -0.001 C 
HETATM    2  C10 UNL     1       0.308   8.934  12.971  1.00  0.00     0.007 C 
HETATM    3  C11 UNL     1      -1.238   8.881  12.869  1.00  0.00     0.022 C 
HETATM    4  C12 UNL     1      -1.608   7.441  13.289  1.00  0.00     0.057 C 
HETATM    5  C14 UNL     1      -2.970   6.867  12.807  1.00  0.00     0.010 C 
HETATM    6  C15 UNL     1      -4.202   7.690  13.221  1.00  0.00     0.010 C 
HETATM    7  C16 UNL     1      -4.964   7.195  14.453  1.00  0.00     0.036 C 
HETATM    8  C17 UNL     1      -5.933   6.042  14.215  1.00  0.00    -0.067 C 
HETATM    9  C18 UNL     1      -5.680   5.015  13.365  1.00  0.00    -0.076 C 
HETATM   10  C19 UNL     1      -6.714   3.947  13.039  1.00  0.00     0.037 C 
HETATM   11  C20 UNL     1      -8.119   4.216  13.559  1.00  0.00     0.037 C 
HETATM   12  C21 UNL     1      -8.076   4.804  14.960  1.00  0.00     0.130 C 
HETATM   13  C22 UNL     1      -7.272   6.143  15.002  1.00  0.00     0.002 C 
HETATM   14  C23 UNL     1      -7.026   6.498  16.490  1.00  0.00     0.022 C 
HETATM   15  C24 UNL     1      -8.139   7.256  14.368  1.00  0.00     0.022 C 
HETATM   16  C25 UNL     1      -4.368   4.730  12.641  1.00  0.00     0.039 C 
HETATM   17  C26 UNL     1      -3.073   5.363  13.185  1.00  0.00    -0.005 C 
HETATM   18  C27 UNL     1      -1.850   4.543  12.691  1.00  0.00     0.006 C 
HETATM   19  C28 UNL     1      -0.478   5.163  13.007  1.00  0.00     0.011 C 
HETATM   20  C29 UNL     1      -0.423   6.647  12.607  1.00  0.00    -0.022 C 
HETATM   21  C30 UNL     1      -0.449   6.682  11.045  1.00  0.00     0.017 C 
ENDROOT
BRANCH   1  22
HETATM   22  C2  UNL     1       2.212   7.122  12.568  1.00  0.00    -0.014 C 
HETATM   23  C1  UNL     1       2.901   8.419  12.112  1.00  0.00     0.010 C 
BRANCH  22  24
HETATM   24  C3  UNL     1       2.245   6.080  11.425  1.00  0.00     0.007 C 
BRANCH  24  25
HETATM   25  C4  UNL     1       3.088   6.512  10.205  1.00  0.00     0.035 C 
BRANCH  25  26
HETATM   26  C5  UNL     1       2.379   6.266   8.858  1.00  0.00     0.151 C 
BRANCH  26  27
HETATM   27  O1  UNL     1       3.186   5.360   8.084  1.00  0.00    -0.393 OA
HETATM   28  H10 UNL     1       4.086   5.731   8.080  1.00  0.00     0.210 HD
ENDBRANCH  26  27
BRANCH  26  29
HETATM   29  C6  UNL     1       2.135   7.549   8.012  1.00  0.00     0.076 C 
HETATM   30  C7  UNL     1       0.940   8.365   8.505  1.00  0.00     0.048 C 
HETATM   31  C8  UNL     1       1.925   7.187   6.534  1.00  0.00     0.048 C 
BRANCH  29  32
HETATM   32  O2  UNL     1       3.295   8.392   8.100  1.00  0.00    -0.388 OA
HETATM   33  H17 UNL     1       3.967   8.016   7.503  1.00  0.00     0.210 HD
ENDBRANCH  29  32
ENDBRANCH  26  29
ENDBRANCH  25  26
ENDBRANCH  24  25
ENDBRANCH  22  24
ENDBRANCH   1  22
BRANCH   4  34
HETATM   34  C13 UNL     1      -1.591   7.400  14.844  1.00  0.00     0.149 C 
HETATM   35  O3  UNL     1      -1.871   8.297  15.621  1.00  0.00    -0.649 OA
BRANCH  34  36
HETATM   36  O4  UNL     1      -1.164   6.227  15.356  1.00  0.00    -0.776 OA
HETATM   37  H23 UNL     1      -1.197   6.374  16.325  1.00  0.00     0.167 HD
ENDBRANCH  34  36
ENDBRANCH   4  34
BRANCH  12  38
HETATM   38  O5  UNL     1      -7.532   3.827  15.856  1.00  0.00    -0.394 OA
HETATM   39  H34 UNL     1      -6.577   3.762  15.670  1.00  0.00     0.210 HD
ENDBRANCH  12  38
TORSDOF 10
ENDMDL
