MODEL 1
REMARK minimizedAffinity -9.6603508
REMARK  9 active torsions:
REMARK  status: ('A' for Active; 'I' for Inactive)
REMARK    1  A    between atoms: C2_2  and  C30_34 
REMARK    2  A    between atoms: C3_3  and  C4_4 
REMARK    3  A    between atoms: C4_4  and  C5_5 
REMARK    4  A    between atoms: C5_5  and  C6_6 
REMARK    5  A    between atoms: C6_6  and  C8_8 
REMARK    6  A    between atoms: C10_10  and  O1_12 
REMARK    7  A    between atoms: C14_15  and  O2_16 
REMARK    8  A    between atoms: C25_28  and  O4_29 
REMARK    9  A    between atoms: C30_34  and  O5_35 
ROOT
HETATM    1  C8  UNL     1       1.004   8.293  13.216  1.00  0.00     0.005 C 
HETATM    2  C9  UNL     1       0.908   9.645  13.930  1.00  0.00     0.048 C 
HETATM    3  C10 UNL     1      -0.287   9.471  14.890  1.00  0.00     0.079 C 
HETATM    4  C11 UNL     1       0.233   9.077  16.279  1.00  0.00     0.051 C 
HETATM    5  C12 UNL     1      -1.158   8.414  14.213  1.00  0.00    -0.030 C 
HETATM    6  C13 UNL     1      -2.269   7.809  14.700  1.00  0.00    -0.011 C 
HETATM    7  C14 UNL     1      -2.924   8.213  15.999  1.00  0.00     0.151 C 
HETATM    8  C15 UNL     1      -4.448   8.332  15.907  1.00  0.00     0.043 C 
HETATM    9  C16 UNL     1      -5.138   7.127  15.227  1.00  0.00     0.015 C 
HETATM   10  C17 UNL     1      -6.709   7.241  15.248  1.00  0.00     0.018 C 
HETATM   11  C18 UNL     1      -7.251   6.640  16.568  1.00  0.00     0.023 C 
HETATM   12  C19 UNL     1      -7.247   8.685  15.154  1.00  0.00     0.023 C 
HETATM   13  C20 UNL     1      -7.306   6.405  14.113  1.00  0.00     0.135 C 
HETATM   14  O3  UNL     1      -8.409   6.641  13.611  1.00  0.00    -0.297 OA
HETATM   15  C21 UNL     1      -6.531   5.190  13.688  1.00  0.00     0.080 C 
HETATM   16  C22 UNL     1      -5.134   5.546  13.202  1.00  0.00     0.020 C 
HETATM   17  C23 UNL     1      -4.497   6.834  13.815  1.00  0.00    -0.004 C 
HETATM   18  C24 UNL     1      -4.760   8.006  12.834  1.00  0.00     0.019 C 
HETATM   19  C25 UNL     1      -2.932   6.610  14.004  1.00  0.00     0.092 C 
HETATM   20  C26 UNL     1      -2.220   6.143  12.703  1.00  0.00     0.044 C 
HETATM   21  C27 UNL     1      -0.725   6.475  12.685  1.00  0.00     0.017 C 
HETATM   22  C28 UNL     1      -0.487   7.978  12.910  1.00  0.00    -0.013 C 
HETATM   23  C29 UNL     1      -1.070   8.793  11.740  1.00  0.00     0.021 C 
ENDROOT
BRANCH   1  24
HETATM   24  C6  UNL     1       2.051   8.218  12.068  1.00  0.00    -0.013 C 
HETATM   25  C7  UNL     1       3.346   8.997  12.322  1.00  0.00     0.010 C 
BRANCH  24  26
HETATM   26  C5  UNL     1       2.355   6.716  11.786  1.00  0.00     0.008 C 
BRANCH  26  27
HETATM   27  C4  UNL     1       3.491   6.424  10.795  1.00  0.00     0.028 C 
BRANCH  27  28
HETATM   28  C3  UNL     1       3.042   5.972   9.435  1.00  0.00    -0.022 C 
HETATM   29  C2  UNL     1       2.764   6.749   8.365  1.00  0.00    -0.064 C 
HETATM   30  C1  UNL     1       2.804   8.256   8.374  1.00  0.00     0.045 C 
BRANCH  29  31
HETATM   31  C30 UNL     1       2.386   6.133   7.041  1.00  0.00     0.197 C 
BRANCH  31  32
HETATM   32  O5  UNL     1       1.748   7.100   6.213  1.00  0.00    -0.397 OA
HETATM   33  H48 UNL     1       1.927   7.978   6.594  1.00  0.00     0.209 HD
ENDBRANCH  31  32
ENDBRANCH  29  31
ENDBRANCH  27  28
ENDBRANCH  26  27
ENDBRANCH  24  26
ENDBRANCH   1  24
BRANCH   3  34
HETATM   34  O1  UNL     1      -1.012  10.686  14.977  1.00  0.00    -0.386 OA
HETATM   35  H19 UNL     1      -0.385  11.389  15.207  1.00  0.00     0.211 HD
ENDBRANCH   3  34
BRANCH   7  36
HETATM   36  O2  UNL     1      -2.548   7.241  16.977  1.00  0.00    -0.391 OA
HETATM   37  H21 UNL     1      -3.155   7.335  17.728  1.00  0.00     0.210 HD
ENDBRANCH   7  36
BRANCH  19  38
HETATM   38  O4  UNL     1      -2.785   5.483  14.902  1.00  0.00    -0.384 OA
HETATM   39  H38 UNL     1      -2.069   5.710  15.531  1.00  0.00     0.211 HD
ENDBRANCH  19  38
TORSDOF 9
ENDMDL
