MODEL 1
REMARK minimizedAffinity -9.34968472
REMARK  5 active torsions:
REMARK  status: ('A' for Active; 'I' for Inactive)
REMARK    1  A    between atoms: C2_2  and  C3_3 
REMARK    2  A    between atoms: C2_2  and  C25_27 
REMARK    3  A    between atoms: C3_3  and  C4_4 
REMARK    4  A    between atoms: C4_4  and  C5_5 
REMARK    5  A    between atoms: C15_15  and  O1_16 
ROOT
HETATM    1  C5  UNL     1       0.098  50.360 -17.802  1.00  0.00    -0.023 C 
HETATM    2  C6  UNL     1      -0.911  49.985 -18.607  1.00  0.00    -0.075 C 
HETATM    3  C7  UNL     1      -1.867  48.835 -18.344  1.00  0.00     0.035 C 
HETATM    4  C8  UNL     1      -2.690  48.701 -19.633  1.00  0.00     0.013 C 
HETATM    5  C9  UNL     1      -1.784  49.347 -20.676  1.00  0.00     0.033 C 
HETATM    6  C10 UNL     1      -2.324  49.593 -22.085  1.00  0.00     0.070 C 
HETATM    7  C11 UNL     1      -2.741  48.256 -22.753  1.00  0.00     0.039 C 
HETATM    8  C12 UNL     1      -3.329  48.451 -24.154  1.00  0.00     0.009 C 
HETATM    9  C13 UNL     1      -2.515  49.476 -24.950  1.00  0.00    -0.001 C 
HETATM   10  C14 UNL     1      -3.168  49.825 -26.288  1.00  0.00     0.037 C 
HETATM   11  C15 UNL     1      -2.203  50.629 -27.168  1.00  0.00     0.118 C 
HETATM   12  C16 UNL     1      -1.159  51.419 -26.370  1.00  0.00     0.032 C 
HETATM   13  C17 UNL     1      -1.719  51.915 -25.037  1.00  0.00     0.015 C 
HETATM   14  C18 UNL     1      -2.209  50.771 -24.118  1.00  0.00    -0.009 C 
HETATM   15  C19 UNL     1      -3.438  51.234 -23.301  1.00  0.00     0.179 C 
HETATM   16  O2  UNL     1      -3.486  50.438 -22.101  1.00  0.00    -0.379 OA
HETATM   17  C20 UNL     1      -1.284  50.335 -22.960  1.00  0.00     0.032 C 
HETATM   18  C21 UNL     1      -0.554  51.492 -22.234  1.00  0.00     0.009 C 
HETATM   19  C22 UNL     1      -0.089  51.147 -20.812  1.00  0.00     0.014 C 
HETATM   20  C23 UNL     1      -1.249  50.605 -19.960  1.00  0.00    -0.014 C 
HETATM   21  C24 UNL     1      -2.274  51.727 -19.680  1.00  0.00     0.020 C 
ENDROOT
BRANCH   1  22
HETATM   22  C4  UNL     1       0.449  49.737 -16.477  1.00  0.00     0.031 C 
BRANCH  22  23
HETATM   23  C3  UNL     1       0.779  50.808 -15.432  1.00  0.00     0.037 C 
BRANCH  23  24
HETATM   24  C2  UNL     1       1.822  51.818 -15.882  1.00  0.00    -0.086 C 
HETATM   25  C1  UNL     1       1.595  52.570 -16.975  1.00  0.00     0.014 C 
BRANCH  24  26
HETATM   26  C25 UNL     1       3.148  51.944 -15.137  1.00  0.00     0.005 C 
HETATM   27  C26 UNL     1       3.442  50.719 -14.269  1.00  0.00     0.014 C 
HETATM   28  C27 UNL     1       4.337  52.266 -16.044  1.00  0.00     0.014 C 
ENDBRANCH  24  26
ENDBRANCH  23  24
ENDBRANCH  22  23
ENDBRANCH   1  22
BRANCH  11  29
HETATM   29  O1  UNL     1      -2.954  51.511 -27.998  1.00  0.00    -0.396 OA
HETATM   30  H21 UNL     1      -3.403  52.158 -27.428  1.00  0.00     0.210 HD
ENDBRANCH  11  29
TORSDOF 5
ENDMDL
