MODEL 1
REMARK minimizedAffinity -8.39979362
REMARK  7 active torsions:
REMARK  status: ('A' for Active; 'I' for Inactive)
REMARK    1  A    between atoms: C3_3  and  C5_5 
REMARK    2  A    between atoms: C6_6  and  C7_7 
REMARK    3  A    between atoms: C8_8  and  C9_9 
REMARK    4  A    between atoms: C10_10  and  C12_12 
REMARK    5  A    between atoms: C12_12  and  C13_14 
REMARK    6  A    between atoms: C13_14  and  C15_16 
REMARK    7  A    between atoms: C15_16  and  O2_17 
ROOT
HETATM    1  C5  UNL     1      -0.682   7.514  13.119  1.00  0.00     0.058 C 
HETATM    2  C6  UNL     1      -0.393   6.208  12.294  1.00  0.00     0.024 C 
HETATM    3  C16 UNL     1       0.156   6.507  10.847  1.00  0.00     0.003 C 
HETATM    4  C17 UNL     1       1.569   5.921  10.664  1.00  0.00     0.041 C 
HETATM    5  C18 UNL     1       2.128   6.219   9.306  1.00  0.00     0.157 A 
HETATM    6  O3  UNL     1       2.787   7.494   9.218  1.00  0.00    -0.370 OA
HETATM    7  C19 UNL     1       1.585   7.349   8.453  1.00  0.00     0.084 A 
HETATM    8  C20 UNL     1       1.819   7.330   6.976  1.00  0.00     0.049 C 
HETATM    9  C21 UNL     1       0.420   8.161   8.951  1.00  0.00     0.048 C 
HETATM   10  C22 UNL     1       0.176   8.007  10.461  1.00  0.00     0.025 C 
HETATM   11  C23 UNL     1      -1.099   8.684  10.887  1.00  0.00     0.162 A 
HETATM   12  O4  UNL     1      -0.917   9.678  11.899  1.00  0.00    -0.368 OA
HETATM   13  C24 UNL     1      -1.566   8.456  12.308  1.00  0.00     0.092 A 
HETATM   14  C25 UNL     1      -3.003   8.662  12.659  1.00  0.00     0.049 C 
ENDROOT
BRANCH   2  15
HETATM   15  C7  UNL     1      -1.527   5.191  12.240  1.00  0.00    -0.021 C 
HETATM   16  C8  UNL     1      -2.758   5.338  12.760  1.00  0.00    -0.003 C 
BRANCH  16  17
HETATM   17  C9  UNL     1      -3.807   4.356  12.587  1.00  0.00     0.010 C 
HETATM   18  C10 UNL     1      -5.118   4.550  12.818  1.00  0.00    -0.016 C 
HETATM   19  C11 UNL     1      -5.797   5.805  13.268  1.00  0.00     0.052 C 
BRANCH  18  20
HETATM   20  C12 UNL     1      -5.994   3.382  12.477  1.00  0.00     0.161 C 
HETATM   21  O1  UNL     1      -6.807   2.987  13.315  1.00  0.00    -0.292 OA
BRANCH  20  22
HETATM   22  C13 UNL     1      -5.874   2.695  11.118  1.00  0.00     0.080 C 
HETATM   23  C14 UNL     1      -5.609   1.203  11.291  1.00  0.00     0.020 C 
BRANCH  22  24
HETATM   24  C15 UNL     1      -4.846   3.355  10.198  1.00  0.00     0.176 C 
BRANCH  24  25
HETATM   25  O2  UNL     1      -5.282   3.329   8.841  1.00  0.00    -0.400 OA
HETATM   26  H22 UNL     1      -6.122   3.815   8.769  1.00  0.00     0.209 HD
ENDBRANCH  24  25
ENDBRANCH  22  24
ENDBRANCH  20  22
ENDBRANCH  18  20
ENDBRANCH  16  17
ENDBRANCH   2  15
BRANCH   1  27
HETATM   27  C3  UNL     1      -1.014   7.361  14.614  1.00  0.00    -0.080 C 
HETATM   28  C2  UNL     1      -2.240   7.721  15.052  1.00  0.00    -0.028 C 
HETATM   29  C1  UNL     1      -2.767   7.686  16.452  1.00  0.00     0.036 C 
HETATM   30  C4  UNL     1       0.025   6.787  15.538  1.00  0.00     0.043 C 
ENDBRANCH   1  27
TORSDOF 7
ENDMDL
