MODEL 1
REMARK minimizedAffinity -8.73192215
REMARK CNNscore 0.598557472
REMARK CNNaffinity 6.97037363
REMARK  14 active torsions:
REMARK  status: ('A' for Active; 'I' for Inactive)
REMARK    1  A    between atoms: O1_2  and  C2_3 
REMARK    2  A    between atoms: C2_3  and  C3_5 
REMARK    3  A    between atoms: C3_5  and  C4_6 
REMARK    4  A    between atoms: C3_5  and  N2_16 
REMARK    5  A    between atoms: C4_6  and  C5_7 
REMARK       I    between atoms: N2_16  and  C13_17 
REMARK    6  A    between atoms: C13_17  and  C14_19 
REMARK    7  A    between atoms: C14_19  and  C15_20 
REMARK    8  A    between atoms: C15_20  and  C16_21 
REMARK    9  A    between atoms: C16_21  and  O5_23 
REMARK   10  A    between atoms: O5_23  and  C17_24 
REMARK   11  A    between atoms: C17_24  and  C18_25 
REMARK   12  A    between atoms: C18_25  and  C19_27 
REMARK   13  A    between atoms: C19_27  and  O7_28 
REMARK   14  A    between atoms: C34_44  and  O9_45 
ROOT
HETATM    1  C17 UNL     1     -14.047   6.382  14.523  1.00  0.00     0.260 C 
ENDROOT
BRANCH   1   2
HETATM    2  O5  UNL     1     -13.086   6.431  13.463  1.00  0.00    -0.314 OA
BRANCH   2   3
HETATM    3  C16 UNL     1     -12.320   7.559  13.471  1.00  0.00     0.259 C 
HETATM    4  O4  UNL     1     -12.737   8.677  13.742  1.00  0.00    -0.265 OA
BRANCH   3   5
HETATM    5  C15 UNL     1     -10.895   7.248  13.105  1.00  0.00     0.120 C 
BRANCH   5   6
HETATM    6  C14 UNL     1     -10.135   6.813  14.351  1.00  0.00     0.112 C 
BRANCH   6   7
HETATM    7  C13 UNL     1      -8.683   6.513  14.059  1.00  0.00     0.218 C 
HETATM    8  N2  UNL     1      -8.514   5.351  13.347  1.00  0.00    -0.347 N 
HETATM    9  H13 UNL     1      -9.316   4.773  13.113  1.00  0.00     0.163 HD
HETATM   10  O3  UNL     1      -7.752   7.226  14.414  1.00  0.00    -0.274 OA
BRANCH   8  11
HETATM   11  C3  UNL     1      -7.192   4.860  12.927  1.00  0.00     0.188 C 
BRANCH  11  12
HETATM   12  C2  UNL     1      -7.379   3.394  12.531  1.00  0.00     0.281 C 
HETATM   13  O2  UNL     1      -8.288   2.688  12.958  1.00  0.00    -0.263 OA
BRANCH  12  14
HETATM   14  O1  UNL     1      -6.420   2.993  11.653  1.00  0.00    -0.325 OA
HETATM   15  C1  UNL     1      -6.312   1.578  11.501  1.00  0.00     0.213 C 
ENDBRANCH  12  14
ENDBRANCH  11  12
BRANCH  11  16
HETATM   16  C4  UNL     1      -6.164   4.979  14.061  1.00  0.00     0.076 C 
BRANCH  16  17
HETATM   17  C5  UNL     1      -4.768   5.236  13.581  1.00  0.00    -0.028 A 
HETATM   18  C6  UNL     1      -3.815   4.277  13.296  1.00  0.00     0.096 A 
HETATM   19  N1  UNL     1      -2.665   4.911  12.910  1.00  0.00    -0.365 N 
HETATM   20  C7  UNL     1      -2.845   6.274  12.930  1.00  0.00     0.042 A 
HETATM   21  H8  UNL     1      -1.806   4.450  12.647  1.00  0.00     0.165 HD
HETATM   22  C8  UNL     1      -1.951   7.304  12.617  1.00  0.00     0.030 A 
HETATM   23  C12 UNL     1      -4.156   6.511  13.345  1.00  0.00    -0.002 A 
HETATM   24  C9  UNL     1      -2.410   8.619  12.734  1.00  0.00     0.002 A 
HETATM   25  C10 UNL     1      -3.713   8.890  13.145  1.00  0.00     0.001 A 
HETATM   26  C11 UNL     1      -4.594   7.847  13.453  1.00  0.00     0.014 A 
ENDBRANCH  16  17
ENDBRANCH  11  16
ENDBRANCH   8  11
ENDBRANCH   6   7
ENDBRANCH   5   6
ENDBRANCH   3   5
ENDBRANCH   2   3
ENDBRANCH   1   2
BRANCH   1  27
HETATM   27  C18 UNL     1     -15.474   6.374  13.983  1.00  0.00     0.185 C 
HETATM   28  O6  UNL     1     -15.749   6.863  12.876  1.00  0.00    -0.292 OA
BRANCH  27  29
HETATM   29  C19 UNL     1     -16.601   5.722  14.809  1.00  0.00     0.128 C 
HETATM   30  C20 UNL     1     -16.379   5.602  16.321  1.00  0.00     0.047 C 
HETATM   31  C21 UNL     1     -17.234   4.410  16.777  1.00  0.00     0.009 C 
HETATM   32  C22 UNL     1     -17.897   3.833  15.514  1.00  0.00     0.002 C 
HETATM   33  C23 UNL     1     -18.197   2.320  15.549  1.00  0.00    -0.002 C 
HETATM   34  C36 UNL     1     -16.967   4.272  14.359  1.00  0.00     0.001 C 
HETATM   35  C24 UNL     1     -19.109   1.984  16.740  1.00  0.00     0.010 C 
HETATM   36  C33 UNL     1     -16.922   1.419  15.500  1.00  0.00     0.035 C 
HETATM   37  C25 UNL     1     -19.515   0.519  16.733  1.00  0.00     0.036 C 
HETATM   38  C26 UNL     1     -18.279  -0.340  16.738  1.00  0.00    -0.064 A 
HETATM   39  C27 UNL     1     -18.076  -1.198  17.755  1.00  0.00     0.058 A 
HETATM   40  C31 UNL     1     -17.286  -0.128  15.578  1.00  0.00     0.004 A 
HETATM   41  C28 UNL     1     -16.855  -2.019  17.854  1.00  0.00     0.172 A 
HETATM   42  O8  UNL     1     -16.691  -2.807  18.776  1.00  0.00    -0.289 OA
HETATM   43  C29 UNL     1     -15.844  -1.845  16.800  1.00  0.00     0.052 A 
HETATM   44  C30 UNL     1     -16.046  -0.994  15.785  1.00  0.00    -0.009 A 
HETATM   45  C32 UNL     1     -17.940  -0.629  14.269  1.00  0.00     0.025 C 
HETATM   46  C34 UNL     1     -16.067   1.847  14.273  1.00  0.00     0.124 C 
HETATM   47  C35 UNL     1     -15.734   3.345  14.296  1.00  0.00     0.045 C 
HETATM   48  C37 UNL     1     -17.712   4.235  13.010  1.00  0.00     0.019 C 
BRANCH  29  49
HETATM   49  O7  UNL     1     -17.751   6.575  14.641  1.00  0.00    -0.381 OA
HETATM   50  H20 UNL     1     -17.727   6.896  13.717  1.00  0.00     0.211 HD
ENDBRANCH  29  49
BRANCH  46  51
HETATM   51  O9  UNL     1     -14.816   1.165  14.250  1.00  0.00    -0.395 OA
HETATM   52  H39 UNL     1     -14.377   1.374  13.407  1.00  0.00     0.210 HD
ENDBRANCH  46  51
ENDBRANCH  27  29
ENDBRANCH   1  27
TORSDOF 14
ENDMDL
