MODEL 1
REMARK minimizedAffinity -8.93309784
REMARK CNNscore 0.886244178
REMARK CNNaffinity 7.7986455
REMARK  12 active torsions:
REMARK  status: ('A' for Active; 'I' for Inactive)
REMARK    1  A    between atoms: C2_2  and  C17_19 
REMARK    2  A    between atoms: C3_3  and  C4_4 
REMARK    3  A    between atoms: C4_4  and  C5_5 
REMARK    4  A    between atoms: C5_5  and  C6_6 
REMARK    5  A    between atoms: C12_12  and  O1_13 
REMARK    6  A    between atoms: C17_19  and  C18_20 
REMARK    7  A    between atoms: C19_21  and  C20_22 
REMARK    8  A    between atoms: C20_22  and  C22_24 
REMARK    9  A    between atoms: C22_24  and  C23_26 
REMARK   10  A    between atoms: C23_26  and  O4_27 
REMARK   11  A    between atoms: C23_26  and  C24_28 
REMARK   12  A    between atoms: C24_28  and  C25_29 
ROOT
HETATM    1  C1  UNL     1      -4.391  51.381 -22.052  1.00  0.00     0.043 C 
HETATM    2  C2  UNL     1      -4.315  49.926 -21.670  1.00  0.00    -0.084 C 
HETATM    3  C3  UNL     1      -4.052  49.492 -20.418  1.00  0.00    -0.024 C 
ENDROOT
BRANCH   3   4
HETATM    4  C4  UNL     1      -3.896  50.337 -19.187  1.00  0.00     0.030 C 
BRANCH   4   5
HETATM    5  C5  UNL     1      -2.561  51.073 -19.038  1.00  0.00     0.042 C 
BRANCH   5   6
HETATM    6  C6  UNL     1      -1.244  50.278 -19.257  1.00  0.00     0.065 C 
HETATM    7  C7  UNL     1      -1.503  48.763 -19.193  1.00  0.00     0.046 C 
HETATM    8  C8  UNL     1      -0.103  50.623 -18.292  1.00  0.00     0.043 C 
HETATM    9  C9  UNL     1       0.318  52.078 -18.438  1.00  0.00     0.044 C 
HETATM   10  C10 UNL     1       0.457  52.444 -19.886  1.00  0.00    -0.021 A 
HETATM   11  C11 UNL     1       1.137  53.618 -20.236  1.00  0.00     0.046 A 
HETATM   12  C16 UNL     1      -0.114  51.649 -20.891  1.00  0.00     0.082 A 
HETATM   13  C12 UNL     1       1.264  53.967 -21.574  1.00  0.00     0.066 A 
HETATM   14  C13 UNL     1       0.727  53.170 -22.577  1.00  0.00     0.046 A 
HETATM   15  C14 UNL     1       0.035  51.996 -22.244  1.00  0.00    -0.025 A 
HETATM   16  C15 UNL     1      -0.553  51.139 -23.327  1.00  0.00     0.051 C 
HETATM   17  O2  UNL     1      -0.825  50.505 -20.627  1.00  0.00    -0.340 OA
BRANCH  13  18
HETATM   18  O1  UNL     1       1.906  55.112 -21.954  1.00  0.00    -0.361 OA
HETATM   19  H17 UNL     1       2.196  55.588 -21.155  1.00  0.00     0.217 HD
ENDBRANCH  13  18
ENDBRANCH   5   6
ENDBRANCH   4   5
ENDBRANCH   3   4
BRANCH   2  20
HETATM   20  C17 UNL     1      -4.537  48.945 -22.808  1.00  0.00     0.060 C 
BRANCH  20  21
HETATM   21  C18 UNL     1      -3.246  48.603 -23.502  1.00  0.00    -0.026 C 
HETATM   22  C19 UNL     1      -2.907  48.811 -24.785  1.00  0.00    -0.019 C 
BRANCH  22  23
HETATM   23  C20 UNL     1      -3.747  49.437 -25.872  1.00  0.00     0.076 C 
HETATM   24  C21 UNL     1      -3.732  48.605 -27.149  1.00  0.00     0.022 C 
BRANCH  23  25
HETATM   25  C22 UNL     1      -3.303  50.883 -26.128  1.00  0.00     0.162 C 
HETATM   26  O3  UNL     1      -3.746  51.805 -25.433  1.00  0.00    -0.294 OA
BRANCH  25  27
HETATM   27  C23 UNL     1      -2.280  51.154 -27.243  1.00  0.00     0.188 C 
BRANCH  27  28
HETATM   28  O4  UNL     1      -2.760  50.709 -28.508  1.00  0.00    -0.388 OA
HETATM   29  H31 UNL     1      -2.661  49.733 -28.541  1.00  0.00     0.210 HD
ENDBRANCH  27  28
BRANCH  27  30
HETATM   30  C24 UNL     1      -0.875  50.596 -26.958  1.00  0.00     0.043 C 
BRANCH  30  31
HETATM   31  C25 UNL     1       0.356  51.386 -27.453  1.00  0.00    -0.020 C 
HETATM   32  C26 UNL     1       1.335  51.566 -26.288  1.00  0.00     0.009 C 
HETATM   33  C27 UNL     1       0.026  52.762 -28.036  1.00  0.00     0.009 C 
ENDBRANCH  30  31
ENDBRANCH  27  30
ENDBRANCH  25  27
ENDBRANCH  23  25
ENDBRANCH  22  23
ENDBRANCH  20  21
ENDBRANCH   2  20
TORSDOF 12
ENDMDL
