MODEL 1
REMARK minimizedAffinity -7.31322336
REMARK CNNscore 0.713039219
REMARK CNNaffinity 7.10529375
REMARK  7 active torsions:
REMARK  status: ('A' for Active; 'I' for Inactive)
REMARK    1  A    between atoms: C2_2  and  C30_32 
REMARK    2  A    between atoms: C3_3  and  C4_4 
REMARK    3  A    between atoms: C4_4  and  O1_5 
REMARK    4  A    between atoms: C4_4  and  C5_6 
REMARK    5  A    between atoms: C5_6  and  C6_7 
REMARK    6  A    between atoms: C6_7  and  C8_9 
REMARK    7  A    between atoms: C30_32  and  O3_33 
ROOT
HETATM    1  C8  UNL     1      -0.031  52.094 -10.902  1.00  0.00    -0.002 C 
HETATM    2  C9  UNL     1       1.036  51.042 -10.573  1.00  0.00     0.006 C 
HETATM    3  C10 UNL     1       1.396  51.345  -9.133  1.00  0.00     0.011 C 
HETATM    4  C11 UNL     1       1.588  52.876  -9.093  1.00  0.00    -0.032 C 
HETATM    5  C12 UNL     1       1.407  53.333  -7.632  1.00  0.00     0.016 C 
HETATM    6  C13 UNL     1       3.011  53.307  -9.631  1.00  0.00     0.004 C 
HETATM    7  C14 UNL     1       4.252  52.666  -8.991  1.00  0.00     0.007 C 
HETATM    8  C15 UNL     1       4.805  53.304  -7.727  1.00  0.00     0.007 C 
HETATM    9  C16 UNL     1       4.624  54.821  -7.537  1.00  0.00     0.010 C 
HETATM   10  C17 UNL     1       5.908  55.551  -7.013  1.00  0.00     0.018 C 
HETATM   11  C18 UNL     1       7.090  55.482  -7.995  1.00  0.00     0.023 C 
HETATM   12  C19 UNL     1       6.330  54.984  -5.645  1.00  0.00     0.023 C 
HETATM   13  C20 UNL     1       5.595  57.039  -6.793  1.00  0.00     0.135 C 
HETATM   14  O2  UNL     1       6.453  57.840  -6.414  1.00  0.00    -0.297 OA
HETATM   15  C21 UNL     1       4.165  57.482  -6.961  1.00  0.00     0.080 C 
HETATM   16  C22 UNL     1       3.608  57.036  -8.303  1.00  0.00     0.018 C 
HETATM   17  C23 UNL     1       3.986  55.599  -8.686  1.00  0.00    -0.026 A 
HETATM   18  C24 UNL     1       4.465  55.414 -10.111  1.00  0.00     0.021 A 
HETATM   19  C25 UNL     1       3.123  54.834  -9.710  1.00  0.00    -0.027 A 
HETATM   20  C26 UNL     1       1.884  55.504 -10.285  1.00  0.00     0.011 C 
HETATM   21  C27 UNL     1       1.005  54.508 -11.039  1.00  0.00     0.011 C 
HETATM   22  C28 UNL     1       0.445  53.394 -10.112  1.00  0.00    -0.032 C 
HETATM   23  C29 UNL     1      -0.792  53.959  -9.366  1.00  0.00     0.016 C 
ENDROOT
BRANCH   1  24
HETATM   24  C6  UNL     1      -0.359  52.195 -12.429  1.00  0.00    -0.011 C 
HETATM   25  C7  UNL     1      -1.874  52.228 -12.669  1.00  0.00     0.010 C 
BRANCH  24  26
HETATM   26  C5  UNL     1       0.275  51.016 -13.226  1.00  0.00     0.040 C 
BRANCH  26  27
HETATM   27  C4  UNL     1       1.428  51.398 -14.173  1.00  0.00     0.141 C 
BRANCH  27  28
HETATM   28  C3  UNL     1       0.907  51.649 -15.565  1.00  0.00     0.009 C 
HETATM   29  C2  UNL     1       1.530  52.250 -16.601  1.00  0.00    -0.062 C 
HETATM   30  C1  UNL     1       2.929  52.809 -16.566  1.00  0.00     0.045 C 
BRANCH  29  31
HETATM   31  C30 UNL     1       0.829  52.414 -17.925  1.00  0.00     0.198 C 
BRANCH  31  32
HETATM   32  O3  UNL     1       1.583  53.308 -18.730  1.00  0.00    -0.397 OA
HETATM   33  H48 UNL     1       1.120  53.376 -19.583  1.00  0.00     0.209 HD
ENDBRANCH  31  32
ENDBRANCH  29  31
ENDBRANCH  27  28
BRANCH  27  34
HETATM   34  O1  UNL     1       2.368  50.327 -14.220  1.00  0.00    -0.392 OA
HETATM   35  H6  UNL     1       2.452  50.028 -15.144  1.00  0.00     0.210 HD
ENDBRANCH  27  34
ENDBRANCH  26  27
ENDBRANCH  24  26
ENDBRANCH   1  24
TORSDOF 7
ENDMDL
