MODEL 1
REMARK minimizedAffinity -7.80188084
REMARK CNNscore 0.575009346
REMARK CNNaffinity 6.46006536
REMARK  11 active torsions:
REMARK  status: ('A' for Active; 'I' for Inactive)
REMARK    1  A    between atoms: C3_4  and  O2_5 
REMARK    2  A    between atoms: O2_5  and  C4_6 
REMARK    3  A    between atoms: C7_9  and  C8_10 
REMARK    4  A    between atoms: N1_11  and  C9_13 
REMARK    5  A    between atoms: C9_13  and  C10_14 
REMARK    6  A    between atoms: C10_14  and  O3_15 
REMARK    7  A    between atoms: C16_21  and  C17_22 
REMARK    8  A    between atoms: C23_30  and  O6_31 
REMARK    9  A    between atoms: C27_35  and  O7_36 
REMARK   10  A    between atoms: C30_39  and  O8_40 
REMARK   11  A    between atoms: C31_41  and  O9_42 
ROOT
HETATM    1  C4  UNL     1      -3.656  44.790 -19.167  1.00  0.00     0.127 C 
HETATM    2  C5  UNL     1      -3.931  45.174 -20.624  1.00  0.00     0.033 C 
HETATM    3  C6  UNL     1      -5.080  46.176 -20.749  1.00  0.00     0.021 C 
HETATM    4  C7  UNL     1      -4.857  47.477 -19.931  1.00  0.00     0.026 C 
HETATM    5  C11 UNL     1      -3.651  48.345 -20.480  1.00  0.00     0.009 C 
HETATM    6  C12 UNL     1      -3.718  48.702 -21.980  1.00  0.00     0.007 C 
HETATM    7  C13 UNL     1      -2.500  49.499 -22.443  1.00  0.00     0.013 C 
HETATM    8  C14 UNL     1      -2.318  50.817 -21.652  1.00  0.00    -0.005 C 
HETATM    9  C15 UNL     1      -3.436  51.805 -22.033  1.00  0.00     0.019 C 
HETATM   10  C16 UNL     1      -0.904  51.444 -21.875  1.00  0.00     0.028 C 
HETATM   11  C21 UNL     1       0.024  50.578 -20.999  1.00  0.00     0.013 C 
HETATM   12  C22 UNL     1      -0.857  49.974 -19.897  1.00  0.00     0.040 C 
HETATM   13  C23 UNL     1      -2.279  50.524 -20.125  1.00  0.00     0.070 C 
HETATM   14  C24 UNL     1      -3.418  49.606 -19.607  1.00  0.00     0.026 C 
HETATM   15  C25 UNL     1      -3.185  49.217 -18.133  1.00  0.00     0.011 C 
HETATM   16  C26 UNL     1      -4.292  48.333 -17.578  1.00  0.00     0.039 C 
HETATM   17  C27 UNL     1      -4.587  47.087 -18.434  1.00  0.00     0.073 C 
HETATM   18  C28 UNL     1      -3.430  46.055 -18.322  1.00  0.00     0.071 C 
ENDROOT
BRANCH   1  19
HETATM   19  O2  UNL     1      -4.769  44.001 -18.730  1.00  0.00    -0.356 OA
BRANCH  19  20
HETATM   20  C3  UNL     1      -4.720  42.623 -19.111  1.00  0.00     0.263 C 
HETATM   21  O1  UNL     1      -4.520  41.852 -17.928  1.00  0.00    -0.354 OA
HETATM   22  C2  UNL     1      -4.852  40.460 -18.012  1.00  0.00     0.151 C 
HETATM   23  C1  UNL     1      -6.030  40.191 -17.081  1.00  0.00     0.042 C 
HETATM   24  C31 UNL     1      -5.091  39.945 -19.446  1.00  0.00     0.175 C 
HETATM   25  C30 UNL     1      -6.086  40.828 -20.217  1.00  0.00     0.154 C 
HETATM   26  C29 UNL     1      -6.060  42.281 -19.748  1.00  0.00     0.095 C 
BRANCH  24  27
HETATM   27  O9  UNL     1      -3.844  39.962 -20.163  1.00  0.00    -0.390 OA
HETATM   28  H47 UNL     1      -3.207  39.422 -19.664  1.00  0.00     0.210 HD
ENDBRANCH  24  27
BRANCH  25  29
HETATM   29  O8  UNL     1      -7.418  40.330 -20.085  1.00  0.00    -0.393 OA
HETATM   30  H45 UNL     1      -7.496  39.547 -20.661  1.00  0.00     0.210 HD
ENDBRANCH  25  29
ENDBRANCH  19  20
ENDBRANCH   1  19
BRANCH  17  31
HETATM   31  O7  UNL     1      -5.780  46.520 -17.866  1.00  0.00    -0.389 OA
HETATM   32  H39 UNL     1      -5.586  45.609 -17.559  1.00  0.00     0.210 HD
ENDBRANCH  17  31
BRANCH   4  33
HETATM   33  C8  UNL     1      -6.191  48.237 -19.988  1.00  0.00     0.068 C 
HETATM   34  N1  UNL     1      -6.733  48.758 -18.938  1.00  0.00    -0.399 N 
ATOM     35  H1  UNL     1      -6.324  48.672 -18.007  1.00  0.00     0.158 HD
BRANCH  34  36
HETATM   36  C9  UNL     1      -7.988  49.485 -19.186  1.00  0.00     0.144 C 
BRANCH  36  37
HETATM   37  C10 UNL     1      -9.027  49.264 -18.082  1.00  0.00     0.183 C 
BRANCH  37  38
HETATM   38  O3  UNL     1      -8.482  48.519 -16.994  1.00  0.00    -0.399 OA
HETATM   39  H16 UNL     1      -9.158  48.506 -16.296  1.00  0.00     0.209 HD
ENDBRANCH  37  38
ENDBRANCH  36  37
ENDBRANCH  34  36
ENDBRANCH   4  33
BRANCH  13  40
HETATM   40  O6  UNL     1      -2.336  51.759 -19.392  1.00  0.00    -0.389 OA
HETATM   41  H33 UNL     1      -3.249  52.096 -19.442  1.00  0.00     0.210 HD
ENDBRANCH  13  40
BRANCH  10  42
HETATM   42  C17 UNL     1      -0.450  51.638 -23.296  1.00  0.00    -0.045 A 
HETATM   43  C18 UNL     1       0.455  52.487 -23.784  1.00  0.00     0.087 A 
HETATM   44  C19 UNL     1       0.458  52.329 -25.237  1.00  0.00     0.283 A 
HETATM   45  O4  UNL     1       1.172  52.954 -26.000  1.00  0.00    -0.260 OA
HETATM   46  O5  UNL     1      -0.462  51.394 -25.589  1.00  0.00    -0.314 OA
HETATM   47  C20 UNL     1      -1.084  50.887 -24.411  1.00  0.00     0.213 A 
ENDBRANCH  10  42
TORSDOF 11
ENDMDL
