MODEL 1
REMARK minimizedAffinity -7.74859524
REMARK CNNscore 0.88107425
REMARK CNNaffinity 7.31508446
REMARK  6 active torsions:
REMARK  status: ('A' for Active; 'I' for Inactive)
REMARK    1  A    between atoms: C4_4  and  C5_5 
REMARK    2  A    between atoms: C5_5  and  O1_6 
REMARK    3  A    between atoms: C5_5  and  C6_7 
REMARK    4  A    between atoms: C6_7  and  C7_8 
REMARK    5  A    between atoms: C7_8  and  C9_10 
REMARK    6  A    between atoms: C30_32  and  O3_33 
ROOT
HETATM    1  C9  UNL     1      -1.952  52.161 -11.076  1.00  0.00    -0.002 C 
HETATM    2  C10 UNL     1      -1.255  50.774 -11.188  1.00  0.00     0.007 C 
HETATM    3  C11 UNL     1       0.250  50.985 -10.931  1.00  0.00     0.015 C 
HETATM    4  C12 UNL     1       0.458  52.506 -10.992  1.00  0.00    -0.010 C 
HETATM    5  C13 UNL     1       0.620  52.874 -12.502  1.00  0.00     0.021 C 
HETATM    6  C14 UNL     1       1.675  53.138 -10.312  1.00  0.00    -0.039 C 
HETATM    7  C15 UNL     1       1.610  54.418  -9.854  1.00  0.00    -0.066 C 
HETATM    8  C16 UNL     1       0.307  55.228  -9.935  1.00  0.00     0.036 C 
HETATM    9  C17 UNL     1      -0.935  54.528 -10.521  1.00  0.00     0.015 C 
HETATM   10  C18 UNL     1      -0.879  53.009 -10.322  1.00  0.00    -0.029 C 
HETATM   11  C19 UNL     1      -0.951  52.691  -8.797  1.00  0.00     0.016 C 
HETATM   12  C20 UNL     1       2.841  55.150  -9.245  1.00  0.00    -0.015 C 
HETATM   13  C21 UNL     1       3.306  56.179 -10.305  1.00  0.00     0.020 C 
HETATM   14  C22 UNL     1       2.446  55.899  -7.941  1.00  0.00     0.021 C 
HETATM   15  C23 UNL     1       3.589  56.211  -6.977  1.00  0.00     0.080 C 
HETATM   16  C24 UNL     1       4.953  56.108  -7.616  1.00  0.00     0.135 C 
HETATM   17  O2  UNL     1       5.766  57.025  -7.503  1.00  0.00    -0.297 OA
HETATM   18  C25 UNL     1       5.293  54.787  -8.317  1.00  0.00     0.018 C 
HETATM   19  C26 UNL     1       6.369  55.034  -9.396  1.00  0.00     0.023 C 
HETATM   20  C27 UNL     1       5.921  53.868  -7.248  1.00  0.00     0.023 C 
HETATM   21  C28 UNL     1       3.974  54.132  -8.864  1.00  0.00     0.016 C 
HETATM   22  C29 UNL     1       4.208  53.124 -10.003  1.00  0.00     0.043 C 
HETATM   23  C30 UNL     1       2.942  52.315 -10.284  1.00  0.00     0.148 C 
ENDROOT
BRANCH   1  24
HETATM   24  C7  UNL     1      -3.406  52.049 -10.523  1.00  0.00    -0.011 C 
HETATM   25  C8  UNL     1      -4.189  53.361 -10.683  1.00  0.00     0.010 C 
BRANCH  24  26
HETATM   26  C6  UNL     1      -4.205  50.924 -11.253  1.00  0.00     0.040 C 
BRANCH  26  27
HETATM   27  C5  UNL     1      -4.740  49.813 -10.329  1.00  0.00     0.141 C 
BRANCH  27  28
HETATM   28  C4  UNL     1      -6.247  49.856 -10.245  1.00  0.00     0.006 C 
HETATM   29  C2  UNL     1      -7.122  49.009 -10.831  1.00  0.00    -0.089 C 
HETATM   30  C1  UNL     1      -8.607  49.218 -10.684  1.00  0.00     0.042 C 
HETATM   31  C3  UNL     1      -6.738  47.802 -11.646  1.00  0.00     0.042 C 
ENDBRANCH  27  28
BRANCH  27  32
HETATM   32  O1  UNL     1      -4.201  49.993  -9.021  1.00  0.00    -0.392 OA
HETATM   33  H9  UNL     1      -4.952  50.060  -8.398  1.00  0.00     0.210 HD
ENDBRANCH  27  32
ENDBRANCH  26  27
ENDBRANCH  24  26
ENDBRANCH   1  24
BRANCH  23  34
HETATM   34  O3  UNL     1       2.826  51.319  -9.270  1.00  0.00    -0.391 OA
HETATM   35  H48 UNL     1       2.231  51.669  -8.584  1.00  0.00     0.210 HD
ENDBRANCH  23  34
TORSDOF 6
ENDMDL
