MODEL 1
REMARK minimizedAffinity -6.67914152
REMARK CNNscore 0.511778712
REMARK CNNaffinity 5.41163301
REMARK  16 active torsions:
REMARK  status: ('A' for Active; 'I' for Inactive)
REMARK    1  A    between atoms: C2_2  and  C3_3 
REMARK    2  A    between atoms: C2_2  and  C4_5 
REMARK    3  A    between atoms: C12_13  and  O2_14 
REMARK    4  A    between atoms: O2_14  and  C13_15 
REMARK    5  A    between atoms: C13_15  and  C14_17 
REMARK    6  A    between atoms: C14_17  and  C16_19 
REMARK    7  A    between atoms: C16_19  and  O4_20 
REMARK    8  A    between atoms: C16_19  and  C17_21 
REMARK    9  A    between atoms: C19_23  and  C20_24 
REMARK   10  A    between atoms: C20_24  and  C21_25 
REMARK   11  A    between atoms: C20_24  and  C22_27 
REMARK   12  A    between atoms: C21_25  and  O5_26 
REMARK   13  A    between atoms: C22_27  and  C23_28 
REMARK   14  A    between atoms: C23_28  and  C24_29 
REMARK   15  A    between atoms: C24_29  and  C25_30 
REMARK   16  A    between atoms: C25_30  and  C26_31 
ROOT
HETATM    1  C13 UNL     1       2.580  10.715  17.565  1.00  0.00     0.266 C 
HETATM    2  O3  UNL     1       3.007   9.589  17.343  1.00  0.00    -0.265 OA
ENDROOT
BRANCH   1   3
HETATM    3  O2  UNL     1       2.863  11.446  18.682  1.00  0.00    -0.312 OA
BRANCH   3   4
HETATM    4  C12 UNL     1       3.113  10.675  19.872  1.00  0.00     0.170 C 
HETATM    5  C11 UNL     1       1.779  10.376  20.550  1.00  0.00     0.036 C 
HETATM    6  C10 UNL     1       1.932   9.685  21.905  1.00  0.00     0.007 C 
HETATM    7  C8  UNL     1       3.250  10.004  22.644  1.00  0.00    -0.007 C 
HETATM    8  C6  UNL     1       3.812  11.421  22.293  1.00  0.00    -0.003 C 
HETATM    9  C9  UNL     1       3.068   9.737  24.141  1.00  0.00     0.011 C 
HETATM   10  C5  UNL     1       5.178  11.675  23.013  1.00  0.00     0.030 C 
HETATM   11  C7  UNL     1       2.831  12.545  22.716  1.00  0.00     0.019 C 
HETATM   12  C28 UNL     1       4.057  11.455  20.774  1.00  0.00     0.129 A 
HETATM   13  C4  UNL     1       5.840  13.020  22.639  1.00  0.00     0.094 C 
HETATM   14  C30 UNL     1       5.669  13.452  21.176  1.00  0.00     0.167 C 
HETATM   15  C29 UNL     1       5.021  12.505  20.239  1.00  0.00     0.230 A 
HETATM   16  O7  UNL     1       6.009  14.563  20.773  1.00  0.00    -0.294 OA
HETATM   17  O6  UNL     1       5.429  11.148  20.407  1.00  0.00    -0.358 OA
BRANCH  13  18
HETATM   18  C2  UNL     1       7.301  13.039  23.031  1.00  0.00    -0.018 C 
HETATM   19  C1  UNL     1       8.111  11.966  23.078  1.00  0.00     0.022 C 
BRANCH  18  20
HETATM   20  C3  UNL     1       7.885  14.369  23.376  1.00  0.00     0.265 C 
HETATM   21  O1  UNL     1       8.839  14.518  24.131  1.00  0.00    -0.302 OA
ENDBRANCH  18  20
ENDBRANCH  13  18
ENDBRANCH   3   4
ENDBRANCH   1   3
BRANCH   1  22
HETATM   22  C14 UNL     1       1.703  11.486  16.601  1.00  0.00     0.114 C 
HETATM   23  C15 UNL     1       1.022  12.641  17.342  1.00  0.00     0.023 C 
BRANCH  22  24
HETATM   24  C16 UNL     1       0.714  10.531  15.912  1.00  0.00     0.159 C 
BRANCH  24  25
HETATM   25  O4  UNL     1       0.321   9.510  16.831  1.00  0.00    -0.390 OA
HETATM   26  H24 UNL     1      -0.144   8.830  16.312  1.00  0.00     0.210 HD
ENDBRANCH  24  25
BRANCH  24  27
HETATM   27  C17 UNL     1       1.274   9.828  14.681  1.00  0.00    -0.058 C 
HETATM   28  C18 UNL     1       2.301  10.602  13.887  1.00  0.00     0.046 C 
HETATM   29  C19 UNL     1       0.864   8.580  14.362  1.00  0.00    -0.015 C 
BRANCH  29  30
HETATM   30  C20 UNL     1       1.286   7.768  13.149  1.00  0.00     0.032 C 
BRANCH  30  31
HETATM   31  C21 UNL     1       0.814   6.304  13.253  1.00  0.00     0.172 C 
BRANCH  31  32
HETATM   32  O5  UNL     1      -0.559   6.255  13.634  1.00  0.00    -0.400 OA
HETATM   33  H32 UNL     1      -0.831   5.321  13.607  1.00  0.00     0.209 HD
ENDBRANCH  31  32
ENDBRANCH  30  31
BRANCH  30  34
HETATM   34  C22 UNL     1       2.801   7.878  12.866  1.00  0.00     0.010 C 
BRANCH  34  35
HETATM   35  C23 UNL     1       3.251   8.355  11.477  1.00  0.00     0.001 C 
BRANCH  35  36
HETATM   36  C24 UNL     1       2.932   7.383  10.340  1.00  0.00     0.000 C 
BRANCH  36  37
HETATM   37  C25 UNL     1       1.981   7.967   9.287  1.00  0.00    -0.000 C 
BRANCH  37  38
HETATM   38  C26 UNL     1       2.579   8.146   7.888  1.00  0.00    -0.005 C 
HETATM   39  C27 UNL     1       1.926   7.304   6.807  1.00  0.00     0.005 C 
ENDBRANCH  37  38
ENDBRANCH  36  37
ENDBRANCH  35  36
ENDBRANCH  34  35
ENDBRANCH  30  34
ENDBRANCH  29  30
ENDBRANCH  24  27
ENDBRANCH  22  24
ENDBRANCH   1  22
TORSDOF 16
ENDMDL
