MODEL 1
REMARK minimizedAffinity -7.59550095
REMARK CNNscore 0.812203526
REMARK CNNaffinity 6.82538605
REMARK  11 active torsions:
REMARK  status: ('A' for Active; 'I' for Inactive)
REMARK    1  A    between atoms: C2_2  and  C3_3 
REMARK    2  A    between atoms: C2_2  and  C9_12 
REMARK    3  A    between atoms: C3_3  and  C4_4 
REMARK    4  A    between atoms: C4_4  and  O1_5 
REMARK    5  A    between atoms: C4_4  and  C5_6 
REMARK    6  A    between atoms: C5_6  and  O2_7 
REMARK    7  A    between atoms: C5_6  and  C6_8 
REMARK    8  A    between atoms: C6_8  and  O3_11 
REMARK    9  A    between atoms: C15_18  and  O4_19 
REMARK   10  A    between atoms: C22_27  and  C24_29 
REMARK   11  A    between atoms: C24_29  and  O6_30 
ROOT
HETATM    1  C9  UNL     1       5.318  55.942  -8.106  1.00  0.00    -0.002 C 
HETATM    2  C10 UNL     1       6.152  55.037  -9.055  1.00  0.00     0.006 C 
HETATM    3  C11 UNL     1       5.168  54.240  -9.926  1.00  0.00     0.011 C 
HETATM    4  C12 UNL     1       3.800  54.918  -9.718  1.00  0.00    -0.030 C 
HETATM    5  C13 UNL     1       3.754  56.130 -10.696  1.00  0.00     0.016 C 
HETATM    6  C14 UNL     1       2.566  53.992  -9.948  1.00  0.00     0.032 C 
HETATM    7  C15 UNL     1       2.273  53.624 -11.418  1.00  0.00     0.124 C 
HETATM    8  C16 UNL     1       1.094  52.648 -11.495  1.00  0.00     0.038 C 
HETATM    9  C17 UNL     1      -0.211  53.344 -11.092  1.00  0.00     0.015 C 
HETATM   10  C18 UNL     1      -0.111  54.109  -9.766  1.00  0.00    -0.026 A 
HETATM   11  C19 UNL     1      -1.313  55.026  -9.520  1.00  0.00     0.018 C 
HETATM   12  C20 UNL     1      -2.513  54.710 -10.401  1.00  0.00     0.080 C 
HETATM   13  C21 UNL     1      -2.677  53.220 -10.576  1.00  0.00     0.137 C 
HETATM   14  O5  UNL     1      -3.769  52.680 -10.390  1.00  0.00    -0.297 OA
HETATM   15  C22 UNL     1      -1.482  52.429 -11.123  1.00  0.00     0.042 C 
HETATM   16  C23 UNL     1      -1.330  51.148 -10.283  1.00  0.00     0.026 C 
HETATM   17  C25 UNL     1       0.473  53.455  -8.535  1.00  0.00     0.021 A 
HETATM   18  C26 UNL     1       1.292  54.523  -9.233  1.00  0.00    -0.025 A 
HETATM   19  C27 UNL     1       1.397  55.889  -8.549  1.00  0.00     0.011 C 
HETATM   20  C28 UNL     1       2.723  56.231  -7.850  1.00  0.00     0.011 C 
HETATM   21  C29 UNL     1       3.893  55.302  -8.193  1.00  0.00    -0.032 C 
HETATM   22  C30 UNL     1       3.832  54.075  -7.233  1.00  0.00     0.016 C 
ENDROOT
BRANCH   1  23
HETATM   23  C2  UNL     1       6.007  56.123  -6.720  1.00  0.00    -0.011 C 
HETATM   24  C1  UNL     1       5.932  57.574  -6.224  1.00  0.00     0.010 C 
BRANCH  23  25
HETATM   25  C3  UNL     1       7.499  55.689  -6.778  1.00  0.00     0.039 C 
BRANCH  25  26
HETATM   26  C4  UNL     1       8.286  55.971  -5.483  1.00  0.00     0.150 C 
BRANCH  26  27
HETATM   27  O1  UNL     1       8.554  54.696  -4.883  1.00  0.00    -0.393 OA
HETATM   28  H8  UNL     1       9.504  54.675  -4.625  1.00  0.00     0.210 HD
ENDBRANCH  26  27
BRANCH  26  29
HETATM   29  C5  UNL     1       9.583  56.805  -5.690  1.00  0.00     0.180 C 
BRANCH  29  30
HETATM   30  O2  UNL     1      10.716  55.920  -5.672  1.00  0.00    -0.390 OA
HETATM   31  H10 UNL     1      10.888  55.718  -4.731  1.00  0.00     0.210 HD
ENDBRANCH  29  30
BRANCH  29  32
HETATM   32  C6  UNL     1       9.816  57.908  -4.613  1.00  0.00     0.079 C 
HETATM   33  C7  UNL     1      11.313  58.175  -4.421  1.00  0.00     0.048 C 
HETATM   34  C8  UNL     1       9.094  59.215  -4.947  1.00  0.00     0.048 C 
BRANCH  32  35
HETATM   35  O3  UNL     1       9.311  57.400  -3.363  1.00  0.00    -0.388 OA
HETATM   36  H17 UNL     1       9.407  58.106  -2.693  1.00  0.00     0.210 HD
ENDBRANCH  32  35
ENDBRANCH  29  32
ENDBRANCH  26  29
ENDBRANCH  25  26
ENDBRANCH  23  25
ENDBRANCH   1  23
BRANCH   7  37
HETATM   37  O4  UNL     1       3.400  52.996 -12.026  1.00  0.00    -0.395 OA
HETATM   38  H28 UNL     1       3.614  52.199 -11.514  1.00  0.00     0.210 HD
ENDBRANCH   7  37
BRANCH  15  39
HETATM   39  C24 UNL     1      -1.850  52.074 -12.584  1.00  0.00     0.181 C 
BRANCH  39  40
HETATM   40  O6  UNL     1      -2.981  52.798 -13.061  1.00  0.00    -0.400 OA
HETATM   41  H41 UNL     1      -2.851  53.742 -12.834  1.00  0.00     0.209 HD
ENDBRANCH  39  40
ENDBRANCH  15  39
TORSDOF 11
ENDMDL
