MODEL 1
REMARK minimizedAffinity -8.98270226
REMARK CNNscore 0.465632409
REMARK CNNaffinity 7.18216753
REMARK  10 active torsions:
REMARK  status: ('A' for Active; 'I' for Inactive)
REMARK    1  A    between atoms: C3_3  and  O1_4 
REMARK    2  A    between atoms: N1_14  and  O2_16 
REMARK    3  A    between atoms: O2_16  and  C13_17 
REMARK    4  A    between atoms: C13_17  and  C14_18 
REMARK       I    between atoms: C14_18  and  N2_20 
REMARK    5  A    between atoms: N2_20  and  C15_21 
REMARK    6  A    between atoms: C15_21  and  C16_22 
REMARK       I    between atoms: C16_22  and  N3_24 
REMARK    7  A    between atoms: N3_24  and  C17_25 
REMARK    8  A    between atoms: C17_25  and  C18_26 
REMARK    9  A    between atoms: C17_25  and  C19_29 
REMARK   10  A    between atoms: C18_26  and  O6_28 
ROOT
HETATM    1  C1  UNL     1       0.202   9.040  13.035  1.00  0.00     0.015 C 
HETATM    2  C2  UNL     1      -0.635   8.230  13.334  1.00  0.00    -0.078 C 
HETATM    3  C3  UNL     1      -1.649   7.225  13.686  1.00  0.00     0.128 C 
HETATM    4  C4  UNL     1      -1.102   6.165  14.648  1.00  0.00     0.052 C 
HETATM    5  C5  UNL     1      -2.362   5.452  15.130  1.00  0.00     0.010 C 
HETATM    6  C6  UNL     1      -3.395   6.579  15.300  1.00  0.00     0.002 C 
HETATM    7  C7  UNL     1      -4.878   6.185  15.117  1.00  0.00    -0.004 C 
HETATM    8  C8  UNL     1      -5.213   5.274  13.922  1.00  0.00     0.010 C 
HETATM    9  C9  UNL     1      -6.480   5.632  13.130  1.00  0.00     0.035 C 
HETATM   10  C10 UNL     1      -7.617   6.263  13.895  1.00  0.00    -0.069 C 
HETATM   11  C11 UNL     1      -8.871   6.180  13.416  1.00  0.00     0.030 C 
HETATM   12  C12 UNL     1     -10.000   6.910  14.054  1.00  0.00     0.032 C 
HETATM   13  N1  UNL     1     -11.210   6.570  13.709  1.00  0.00    -0.271 N 
ATOM     14  H1  UNL     1     -11.432   5.808  13.067  1.00  0.00     0.194 HD
HETATM   15  C22 UNL     1      -9.692   8.002  15.068  1.00  0.00     0.060 C 
HETATM   16  C23 UNL     1      -8.202   8.313  15.192  1.00  0.00     0.020 C 
HETATM   17  C24 UNL     1      -7.300   7.054  15.153  1.00  0.00    -0.016 C 
HETATM   18  C25 UNL     1      -7.632   6.164  16.385  1.00  0.00     0.020 C 
HETATM   19  C26 UNL     1      -5.779   7.445  15.182  1.00  0.00     0.002 C 
HETATM   20  C27 UNL     1      -5.371   8.505  14.124  1.00  0.00     0.007 C 
HETATM   21  C28 UNL     1      -4.004   8.286  13.469  1.00  0.00     0.014 C 
HETATM   22  C29 UNL     1      -2.907   7.787  14.432  1.00  0.00     0.003 C 
HETATM   23  C30 UNL     1      -2.534   8.946  15.399  1.00  0.00     0.020 C 
ENDROOT
BRANCH   3  24
HETATM   24  O1  UNL     1      -2.032   6.539  12.488  1.00  0.00    -0.377 OA
HETATM   25  H2  UNL     1      -1.217   6.377  11.983  1.00  0.00     0.211 HD
ENDBRANCH   3  24
BRANCH  13  26
HETATM   26  O2  UNL     1     -12.170   7.384  14.331  1.00  0.00    -0.271 OA
BRANCH  26  27
HETATM   27  C13 UNL     1     -13.451   7.095  13.792  1.00  0.00     0.303 C 
BRANCH  27  28
HETATM   28  C14 UNL     1     -14.433   6.404  14.749  1.00  0.00     0.244 C 
HETATM   29  O3  UNL     1     -14.518   6.640  15.949  1.00  0.00    -0.271 OA
HETATM   30  N2  UNL     1     -15.229   5.463  14.110  1.00  0.00    -0.350 N 
HETATM   31  H16 UNL     1     -14.835   5.034  13.277  1.00  0.00     0.163 HD
BRANCH  30  32
HETATM   32  C15 UNL     1     -16.148   4.641  14.873  1.00  0.00     0.225 C 
BRANCH  32  33
HETATM   33  C16 UNL     1     -15.634   3.202  14.989  1.00  0.00     0.236 C 
HETATM   34  O4  UNL     1     -14.459   2.885  14.796  1.00  0.00    -0.272 OA
HETATM   35  N3  UNL     1     -16.626   2.283  15.283  1.00  0.00    -0.345 N 
HETATM   36  H19 UNL     1     -17.579   2.585  15.130  1.00  0.00     0.163 HD
BRANCH  35  37
HETATM   37  C17 UNL     1     -16.369   0.841  15.150  1.00  0.00     0.185 C 
BRANCH  37  38
HETATM   38  C18 UNL     1     -15.396   0.449  16.267  1.00  0.00     0.163 C 
HETATM   39  O5  UNL     1     -15.700   0.171  17.419  1.00  0.00    -0.648 OA
BRANCH  38  40
HETATM   40  O6  UNL     1     -14.107   0.437  15.883  1.00  0.00    -0.775 OA
HETATM   41  H21 UNL     1     -13.616   0.162  16.687  1.00  0.00     0.167 HD
ENDBRANCH  38  40
ENDBRANCH  37  38
BRANCH  37  42
HETATM   42  C19 UNL     1     -15.846   0.505  13.738  1.00  0.00     0.010 C 
HETATM   43  C20 UNL     1     -16.756   1.090  12.652  1.00  0.00     0.012 C 
HETATM   44  C21 UNL     1     -15.639  -0.993  13.497  1.00  0.00     0.012 C 
ENDBRANCH  37  42
ENDBRANCH  35  37
ENDBRANCH  32  33
ENDBRANCH  30  32
ENDBRANCH  27  28
ENDBRANCH  26  27
ENDBRANCH  13  26
TORSDOF 10
ENDMDL
