MODEL 1
REMARK minimizedAffinity -7.73964453
REMARK CNNscore 0.694298089
REMARK CNNaffinity 7.27762556
REMARK  21 active torsions:
REMARK  status: ('A' for Active; 'I' for Inactive)
REMARK    1  A    between atoms: C2_2  and  C18_25 
REMARK    2  A    between atoms: C3_3  and  C4_4 
REMARK    3  A    between atoms: C4_4  and  O2_6 
REMARK    4  A    between atoms: O2_6  and  C5_7 
REMARK    5  A    between atoms: C5_7  and  C6_8 
REMARK    6  A    between atoms: C6_8  and  C7_9 
REMARK    7  A    between atoms: C7_9  and  C8_10 
REMARK    8  A    between atoms: C8_10  and  C9_11 
REMARK    9  A    between atoms: C9_11  and  C10_12 
REMARK   10  A    between atoms: C10_12  and  C11_13 
REMARK   11  A    between atoms: C11_13  and  C12_14 
REMARK       I    between atoms: C12_14  and  N1_16 
REMARK   12  A    between atoms: N1_16  and  C13_17 
REMARK   13  A    between atoms: C17_23  and  O4_24 
REMARK   14  A    between atoms: C18_25  and  C19_26 
REMARK   15  A    between atoms: C21_29  and  C22_30 
REMARK   16  A    between atoms: C22_30  and  C23_31 
REMARK   17  A    between atoms: C24_32  and  C25_33 
REMARK   18  A    between atoms: C25_33  and  C27_35 
REMARK   19  A    between atoms: C27_35  and  O6_37 
REMARK   20  A    between atoms: C29_38  and  O7_39 
REMARK   21  A    between atoms: C30_40  and  O8_41 
ROOT
HETATM    1  C1  UNL     1      -3.662   5.135  14.313  1.00  0.00     0.043 C 
HETATM    2  C2  UNL     1      -2.870   6.049  13.417  1.00  0.00    -0.075 C 
HETATM    3  C3  UNL     1      -2.087   5.629  12.400  1.00  0.00     0.084 C 
ENDROOT
BRANCH   3   4
HETATM    4  C4  UNL     1      -1.802   4.215  12.055  1.00  0.00     0.283 C 
HETATM    5  O1  UNL     1      -0.729   3.649  12.159  1.00  0.00    -0.260 OA
BRANCH   4   6
HETATM    6  O2  UNL     1      -2.953   3.674  11.578  1.00  0.00    -0.318 OA
BRANCH   6   7
HETATM    7  C5  UNL     1      -3.426   2.524  12.297  1.00  0.00     0.179 C 
BRANCH   7   8
HETATM    8  C6  UNL     1      -4.003   1.488  11.334  1.00  0.00     0.027 C 
BRANCH   8   9
HETATM    9  C7  UNL     1      -5.511   1.291  11.500  1.00  0.00     0.002 C 
BRANCH   9  10
HETATM   10  C8  UNL     1      -6.281   2.614  11.516  1.00  0.00     0.000 C 
BRANCH  10  11
HETATM   11  C9  UNL     1      -6.875   2.959  12.885  1.00  0.00     0.000 C 
BRANCH  11  12
HETATM   12  C10 UNL     1      -8.214   3.703  12.859  1.00  0.00     0.009 C 
BRANCH  12  13
HETATM   13  C11 UNL     1      -8.103   5.148  12.373  1.00  0.00     0.103 C 
BRANCH  13  14
HETATM   14  C12 UNL     1      -8.441   6.155  13.458  1.00  0.00     0.218 C 
HETATM   15  O3  UNL     1      -9.514   6.736  13.543  1.00  0.00    -0.274 OA
HETATM   16  N1  UNL     1      -7.396   6.363  14.332  1.00  0.00    -0.349 N 
HETATM   17  H19 UNL     1      -6.681   5.645  14.369  1.00  0.00     0.163 HD
BRANCH  16  18
HETATM   18  C13 UNL     1      -7.571   7.168  15.542  1.00  0.00     0.159 C 
HETATM   19  C14 UNL     1      -8.937   6.956  16.193  1.00  0.00     0.035 C 
HETATM   20  C15 UNL     1      -9.983   7.838  15.529  1.00  0.00     0.022 C 
HETATM   21  C16 UNL     1      -9.582   9.301  15.671  1.00  0.00     0.121 C 
HETATM   22  N2  UNL     1      -8.238   9.581  15.158  1.00  0.00    -0.373 N 
HETATM   23  C17 UNL     1      -7.392   8.620  15.138  1.00  0.00     0.134 C 
ATOM     24  H2  UNL     1      -7.985  10.512  14.829  1.00  0.00     0.161 HD
BRANCH  23  25
HETATM   25  O4  UNL     1      -6.185   8.903  14.624  1.00  0.00    -0.348 OA
HETATM   26  H27 UNL     1      -6.193   9.853  14.409  1.00  0.00     0.219 HD
ENDBRANCH  23  25
ENDBRANCH  16  18
ENDBRANCH  13  14
ENDBRANCH  12  13
ENDBRANCH  11  12
ENDBRANCH  10  11
ENDBRANCH   9  10
ENDBRANCH   8   9
ENDBRANCH   7   8
ENDBRANCH   6   7
ENDBRANCH   4   6
ENDBRANCH   3   4
BRANCH   2  27
HETATM   27  C18 UNL     1      -3.000   7.535  13.712  1.00  0.00     0.068 C 
BRANCH  27  28
HETATM   28  C19 UNL     1      -1.822   8.090  14.540  1.00  0.00     0.156 C 
HETATM   29  O5  UNL     1      -1.212   9.153  13.777  1.00  0.00    -0.382 OA
HETATM   30  C20 UNL     1       0.065   9.517  14.294  1.00  0.00     0.175 C 
HETATM   31  C21 UNL     1       1.089   8.421  13.964  1.00  0.00     0.044 C 
HETATM   32  C29 UNL     1       0.398   7.042  13.909  1.00  0.00     0.155 C 
HETATM   33  C30 UNL     1      -0.803   6.975  14.860  1.00  0.00     0.176 C 
BRANCH  31  34
HETATM   34  C22 UNL     1       1.786   8.748  12.623  1.00  0.00     0.036 C 
BRANCH  34  35
HETATM   35  C23 UNL     1       1.012   8.276  11.423  1.00  0.00    -0.030 C 
HETATM   36  C24 UNL     1       1.570   8.064  10.220  1.00  0.00    -0.024 C 
BRANCH  36  37
HETATM   37  C25 UNL     1       0.869   7.656   8.934  1.00  0.00     0.032 C 
HETATM   38  C26 UNL     1      -0.165   8.677   8.443  1.00  0.00     0.017 C 
BRANCH  37  39
HETATM   39  C27 UNL     1       1.930   7.329   7.849  1.00  0.00     0.121 C 
HETATM   40  C28 UNL     1       2.889   6.210   8.239  1.00  0.00     0.040 C 
BRANCH  39  41
HETATM   41  O6  UNL     1       2.722   8.491   7.561  1.00  0.00    -0.395 OA
HETATM   42  H46 UNL     1       3.185   8.741   8.381  1.00  0.00     0.210 HD
ENDBRANCH  39  41
ENDBRANCH  37  39
ENDBRANCH  36  37
ENDBRANCH  34  35
ENDBRANCH  31  34
BRANCH  32  43
HETATM   43  O7  UNL     1       1.334   6.031  14.319  1.00  0.00    -0.392 OA
HETATM   44  H48 UNL     1       1.202   5.269  13.724  1.00  0.00     0.210 HD
ENDBRANCH  32  43
BRANCH  33  45
HETATM   45  O8  UNL     1      -0.313   7.137  16.207  1.00  0.00    -0.390 OA
HETATM   46  H50 UNL     1       0.488   6.579  16.250  1.00  0.00     0.210 HD
ENDBRANCH  33  45
ENDBRANCH  27  28
ENDBRANCH   2  27
TORSDOF 21
ENDMDL
