MODEL 1
REMARK minimizedAffinity -9.12911034
REMARK CNNscore 0.479198664
REMARK CNNaffinity 7.61588049
REMARK  19 active torsions:
REMARK  status: ('A' for Active; 'I' for Inactive)
REMARK    1  A    between atoms: C19_20  and  O2_21 
REMARK    2  A    between atoms: C19_20  and  C20_22 
REMARK    3  A    between atoms: C20_22  and  C21_24 
REMARK    4  A    between atoms: C21_24  and  O4_25 
REMARK    5  A    between atoms: O4_25  and  C22_26 
REMARK    6  A    between atoms: C22_26  and  C23_28 
REMARK    7  A    between atoms: C23_28  and  C24_29 
REMARK    8  A    between atoms: C24_29  and  C25_30 
REMARK       I    between atoms: C25_30  and  N1_32 
REMARK    9  A    between atoms: N1_32  and  C26_33 
REMARK   10  A    between atoms: C26_33  and  C27_34 
REMARK   11  A    between atoms: C27_34  and  C28_35 
REMARK   12  A    between atoms: C28_35  and  C29_36 
REMARK   13  A    between atoms: C29_36  and  C30_37 
REMARK   14  A    between atoms: C30_37  and  C31_38 
REMARK       I    between atoms: C31_38  and  N2_40 
REMARK   15  A    between atoms: N2_40  and  C32_41 
REMARK   16  A    between atoms: C32_41  and  C33_42 
REMARK   17  A    between atoms: C32_41  and  C40_49 
REMARK   18  A    between atoms: C33_42  and  C34_43 
REMARK   19  A    between atoms: C40_49  and  O9_51 
ROOT
HETATM    1  C22 UNL     1      -3.629   3.542  11.446  1.00  0.00     0.259 C 
HETATM    2  O5  UNL     1      -2.679   2.799  11.247  1.00  0.00    -0.265 OA
ENDROOT
BRANCH   1   3
HETATM    3  O4  UNL     1      -3.597   4.639  12.254  1.00  0.00    -0.314 OA
BRANCH   3   4
HETATM    4  C21 UNL     1      -2.826   4.487  13.432  1.00  0.00     0.260 C 
BRANCH   4   5
HETATM    5  C20 UNL     1      -1.629   5.396  13.714  1.00  0.00     0.185 C 
HETATM    6  O3  UNL     1      -0.986   5.242  14.766  1.00  0.00    -0.292 OA
BRANCH   5   7
HETATM    7  C19 UNL     1      -1.256   6.583  12.802  1.00  0.00     0.128 C 
HETATM    8  C14 UNL     1      -0.025   7.440  13.217  1.00  0.00    -0.002 C 
HETATM    9  C13 UNL     1       1.296   6.657  13.187  1.00  0.00     0.013 C 
HETATM   10  C15 UNL     1      -0.171   8.036  14.645  1.00  0.00     0.019 C 
HETATM   11  C16 UNL     1      -0.086   8.630  12.198  1.00  0.00     0.002 C 
HETATM   12  C12 UNL     1       2.476   7.534  12.798  1.00  0.00     0.007 C 
HETATM   13  C11 UNL     1       2.368   8.042  11.350  1.00  0.00     0.002 C 
HETATM   14  C2  UNL     1       3.037   7.092  10.246  1.00  0.00    -0.016 C 
HETATM   15  C10 UNL     1       0.974   8.683  11.046  1.00  0.00    -0.004 C 
HETATM   16  C1  UNL     1       4.540   7.487  10.175  1.00  0.00     0.020 C 
HETATM   17  C3  UNL     1       2.930   5.576  10.565  1.00  0.00     0.022 C 
HETATM   18  C7  UNL     1       2.453   7.272   8.845  1.00  0.00    -0.068 C 
HETATM   19  C4  UNL     1       3.606   4.676   9.528  1.00  0.00     0.084 C 
HETATM   20  C5  UNL     1       3.232   5.048   8.115  1.00  0.00     0.149 C 
HETATM   21  O1  UNL     1       3.480   4.313   7.162  1.00  0.00    -0.293 OA
HETATM   22  C6  UNL     1       2.558   6.345   7.876  1.00  0.00     0.053 C 
HETATM   23  C8  UNL     1       1.617   8.491   8.618  1.00  0.00     0.035 C 
HETATM   24  C9  UNL     1       0.471   8.440   9.619  1.00  0.00     0.010 C 
HETATM   25  C17 UNL     1      -1.576   8.736  11.776  1.00  0.00     0.009 C 
HETATM   26  C18 UNL     1      -2.327   7.628  12.520  1.00  0.00     0.047 C 
BRANCH   7  27
HETATM   27  O2  UNL     1      -0.965   5.984  11.510  1.00  0.00    -0.381 OA
HETATM   28  H27 UNL     1      -0.817   5.027  11.670  1.00  0.00     0.211 HD
ENDBRANCH   7  27
ENDBRANCH   5   7
ENDBRANCH   4   5
ENDBRANCH   3   4
ENDBRANCH   1   3
BRANCH   1  29
HETATM   29  C23 UNL     1      -5.002   3.376  10.856  1.00  0.00     0.120 C 
BRANCH  29  30
HETATM   30  C24 UNL     1      -5.735   2.209  11.502  1.00  0.00     0.112 C 
BRANCH  30  31
HETATM   31  C25 UNL     1      -6.736   2.696  12.527  1.00  0.00     0.217 C 
HETATM   32  O6  UNL     1      -7.738   2.064  12.843  1.00  0.00    -0.274 OA
HETATM   33  N1  UNL     1      -6.412   3.928  13.051  1.00  0.00    -0.361 N 
HETATM   34  H34 UNL     1      -5.546   4.375  12.777  1.00  0.00     0.162 HD
BRANCH  33  35
HETATM   35  C26 UNL     1      -7.252   4.590  14.030  1.00  0.00     0.122 C 
BRANCH  35  36
HETATM   36  C27 UNL     1      -6.439   5.453  14.994  1.00  0.00     0.020 C 
BRANCH  36  37
HETATM   37  C28 UNL     1      -7.096   6.805  15.296  1.00  0.00     0.002 C 
BRANCH  37  38
HETATM   38  C29 UNL     1      -8.412   6.686  16.072  1.00  0.00     0.009 C 
BRANCH  38  39
HETATM   39  C30 UNL     1      -9.444   7.722  15.628  1.00  0.00     0.103 C 
BRANCH  39  40
HETATM   40  C31 UNL     1     -10.159   7.365  14.336  1.00  0.00     0.218 C 
HETATM   41  O7  UNL     1      -9.705   6.606  13.487  1.00  0.00    -0.274 OA
HETATM   42  N2  UNL     1     -11.379   8.000  14.213  1.00  0.00    -0.346 N 
HETATM   43  H45 UNL     1     -11.514   8.828  14.784  1.00  0.00     0.163 HD
BRANCH  42  44
HETATM   44  C32 UNL     1     -12.099   7.993  12.930  1.00  0.00     0.186 C 
BRANCH  44  45
HETATM   45  C33 UNL     1     -13.400   7.191  13.058  1.00  0.00     0.074 C 
BRANCH  45  46
HETATM   46  C34 UNL     1     -14.018   7.244  14.433  1.00  0.00    -0.056 A 
HETATM   47  C35 UNL     1     -14.862   6.214  14.874  1.00  0.00     0.007 A 
HETATM   48  C36 UNL     1     -15.446   6.270  16.139  1.00  0.00     0.001 A 
HETATM   49  C37 UNL     1     -15.193   7.354  16.978  1.00  0.00     0.000 A 
HETATM   50  C38 UNL     1     -14.354   8.381  16.553  1.00  0.00     0.001 A 
HETATM   51  C39 UNL     1     -13.768   8.327  15.288  1.00  0.00     0.007 A 
ENDBRANCH  45  46
ENDBRANCH  44  45
BRANCH  44  52
HETATM   52  C40 UNL     1     -12.414   9.453  12.606  1.00  0.00     0.163 C 
HETATM   53  O8  UNL     1     -13.282   9.835  11.831  1.00  0.00    -0.648 OA
BRANCH  52  54
HETATM   54  O9  UNL     1     -11.630  10.335  13.251  1.00  0.00    -0.775 OA
HETATM   55  H54 UNL     1     -11.948  11.214  12.955  1.00  0.00     0.167 HD
ENDBRANCH  52  54
ENDBRANCH  44  52
ENDBRANCH  42  44
ENDBRANCH  39  40
ENDBRANCH  38  39
ENDBRANCH  37  38
ENDBRANCH  36  37
ENDBRANCH  35  36
ENDBRANCH  33  35
ENDBRANCH  30  31
ENDBRANCH  29  30
ENDBRANCH   1  29
TORSDOF 19
ENDMDL
