MODEL 1
REMARK minimizedAffinity -8.22086811
REMARK  8 active torsions:
REMARK  status: ('A' for Active; 'I' for Inactive)
REMARK    1  A    between atoms: C5_5  and  C6_6 
REMARK    2  A    between atoms: C6_6  and  O1_9 
REMARK    3  A    between atoms: C14_16  and  C15_17 
REMARK    4  A    between atoms: C16_19  and  O4_20 
REMARK    5  A    between atoms: C17_21  and  C18_22 
REMARK    6  A    between atoms: C19_24  and  O6_25 
REMARK    7  A    between atoms: C21_27  and  C22_28 
REMARK    8  A    between atoms: C22_28  and  C23_29 
ROOT
HETATM    1  C1  UNL     1      -7.369  50.640 -22.422  1.00  0.00     0.019 C 
HETATM    2  C2  UNL     1      -6.647  49.502 -22.426  1.00  0.00    -0.068 C 
HETATM    3  C3  UNL     1      -6.627  48.710 -21.202  1.00  0.00     0.003 C 
HETATM    4  C4  UNL     1      -5.763  47.806 -20.703  1.00  0.00    -0.019 C 
HETATM    5  C5  UNL     1      -4.461  47.258 -21.259  1.00  0.00     0.042 C 
HETATM    6  C9  UNL     1      -3.243  48.147 -20.867  1.00  0.00     0.014 C 
HETATM    7  C10 UNL     1      -3.390  49.671 -21.047  1.00  0.00     0.039 C 
HETATM    8  C11 UNL     1      -3.028  50.312 -22.423  1.00  0.00     0.068 C 
HETATM    9  C12 UNL     1      -3.607  51.754 -22.364  1.00  0.00     0.047 C 
HETATM   10  O2  UNL     1      -1.564  50.437 -22.396  1.00  0.00    -0.338 OA
HETATM   11  C13 UNL     1      -1.096  51.100 -23.512  1.00  0.00     0.095 A 
HETATM   12  C14 UNL     1      -0.225  52.181 -23.368  1.00  0.00     0.070 A 
HETATM   13  C16 UNL     1       0.127  52.930 -24.497  1.00  0.00     0.097 A 
HETATM   14  C17 UNL     1      -0.407  52.591 -25.747  1.00  0.00     0.069 A 
HETATM   15  C19 UNL     1      -1.256  51.470 -25.880  1.00  0.00     0.091 A 
HETATM   16  C20 UNL     1      -1.562  50.679 -24.772  1.00  0.00     0.015 A 
HETATM   17  C21 UNL     1      -2.305  49.362 -24.724  1.00  0.00     0.031 C 
HETATM   18  C26 UNL     1      -3.474  49.474 -23.683  1.00  0.00     0.029 C 
HETATM   19  C27 UNL     1      -4.851  49.847 -24.288  1.00  0.00     0.013 C 
HETATM   20  C28 UNL     1      -6.048  49.038 -23.734  1.00  0.00     0.038 C 
ENDROOT
BRANCH   5  21
HETATM   21  C6  UNL     1      -4.237  45.734 -20.917  1.00  0.00     0.057 C 
HETATM   22  C7  UNL     1      -3.934  45.540 -19.423  1.00  0.00     0.046 C 
HETATM   23  C8  UNL     1      -5.396  44.810 -21.319  1.00  0.00     0.046 C 
BRANCH  21  24
HETATM   24  O1  UNL     1      -3.067  45.296 -21.630  1.00  0.00    -0.390 OA
HETATM   25  H12 UNL     1      -2.914  44.359 -21.422  1.00  0.00     0.210 HD
ENDBRANCH  21  24
ENDBRANCH   5  21
BRANCH  17  26
HETATM   26  C22 UNL     1      -2.672  48.569 -26.007  1.00  0.00     0.014 C 
BRANCH  26  27
HETATM   27  C23 UNL     1      -3.947  49.018 -26.769  1.00  0.00    -0.022 C 
HETATM   28  C24 UNL     1      -4.990  47.897 -26.854  1.00  0.00     0.009 C 
HETATM   29  C25 UNL     1      -3.691  49.600 -28.155  1.00  0.00     0.009 C 
ENDBRANCH  26  27
ENDBRANCH  17  26
BRANCH  12  30
HETATM   30  C15 UNL     1       0.279  52.537 -22.029  1.00  0.00     0.275 C 
HETATM   31  O3  UNL     1       1.286  51.990 -21.585  1.00  0.00    -0.301 OA
ENDBRANCH  12  30
BRANCH  13  32
HETATM   32  O4  UNL     1       0.968  54.012 -24.410  1.00  0.00    -0.359 OA
HETATM   33  H21 UNL     1       1.246  54.123 -23.469  1.00  0.00     0.217 HD
ENDBRANCH  13  32
BRANCH  15  34
HETATM   34  O6  UNL     1      -1.812  51.149 -27.086  1.00  0.00    -0.359 OA
HETATM   35  H23 UNL     1      -1.513  51.798 -27.764  1.00  0.00     0.217 HD
ENDBRANCH  15  34
BRANCH  14  36
HETATM   36  C18 UNL     1      -0.067  53.422 -26.922  1.00  0.00     0.275 C 
HETATM   37  O5  UNL     1      -0.952  53.969 -27.576  1.00  0.00    -0.301 OA
ENDBRANCH  14  36
TORSDOF 8
ENDMDL
