MODEL 1
REMARK minimizedAffinity -8.94555855
REMARK  6 active torsions:
REMARK  status: ('A' for Active; 'I' for Inactive)
REMARK    1  A    between atoms: C2_2  and  C30_31 
REMARK    2  A    between atoms: C3_3  and  C4_4 
REMARK    3  A    between atoms: C4_4  and  C5_5 
REMARK    4  A    between atoms: C5_5  and  C6_6 
REMARK    5  A    between atoms: C6_6  and  C8_8 
REMARK    6  A    between atoms: C30_31  and  O3_33 
ROOT
HETATM    1  C8  UNL     1      -5.243   7.097  14.657  1.00  0.00    -0.002 C 
HETATM    2  C9  UNL     1      -5.642   8.055  13.490  1.00  0.00     0.007 C 
HETATM    3  C10 UNL     1      -4.344   8.567  12.840  1.00  0.00     0.015 C 
HETATM    4  C11 UNL     1      -3.239   8.213  13.851  1.00  0.00    -0.013 C 
HETATM    5  C12 UNL     1      -3.261   9.344  14.932  1.00  0.00     0.021 C 
HETATM    6  C13 UNL     1      -1.789   8.149  13.373  1.00  0.00    -0.070 C 
HETATM    7  C14 UNL     1      -1.364   8.866  12.321  1.00  0.00    -0.022 C 
HETATM    8  C15 UNL     1       0.084   9.056  12.039  1.00  0.00     0.034 C 
HETATM    9  C16 UNL     1       0.897   7.766  12.221  1.00  0.00     0.013 C 
HETATM   10  C17 UNL     1       0.775   6.736  11.026  1.00  0.00     0.018 C 
HETATM   11  C18 UNL     1       2.185   6.244  10.607  1.00  0.00     0.023 C 
HETATM   12  C19 UNL     1       0.147   7.310   9.735  1.00  0.00     0.023 C 
HETATM   13  C20 UNL     1      -0.026   5.509  11.450  1.00  0.00     0.135 C 
HETATM   14  O1  UNL     1      -0.952   5.056  10.772  1.00  0.00    -0.297 OA
HETATM   15  C21 UNL     1       0.430   4.771  12.681  1.00  0.00     0.080 C 
HETATM   16  C22 UNL     1       1.110   5.675  13.700  1.00  0.00     0.017 C 
HETATM   17  C23 UNL     1       0.672   7.166  13.680  1.00  0.00    -0.031 C 
HETATM   18  C24 UNL     1       1.675   7.895  14.634  1.00  0.00     0.016 C 
HETATM   19  C25 UNL     1      -0.788   7.456  14.301  1.00  0.00     0.024 C 
HETATM   20  C26 UNL     1      -1.379   6.282  15.134  1.00  0.00     0.010 C 
HETATM   21  C27 UNL     1      -2.855   6.407  15.549  1.00  0.00     0.011 C 
HETATM   22  C28 UNL     1      -3.737   6.811  14.352  1.00  0.00    -0.029 C 
HETATM   23  C29 UNL     1      -3.637   5.715  13.246  1.00  0.00     0.016 C 
ENDROOT
BRANCH   1  24
HETATM   24  C6  UNL     1      -6.253   5.913  14.805  1.00  0.00    -0.014 C 
HETATM   25  C7  UNL     1      -6.796   5.808  16.234  1.00  0.00     0.010 C 
BRANCH  24  26
HETATM   26  C5  UNL     1      -7.434   6.077  13.805  1.00  0.00     0.008 C 
BRANCH  26  27
HETATM   27  C4  UNL     1      -7.611   4.915  12.813  1.00  0.00     0.028 C 
BRANCH  27  28
HETATM   28  C3  UNL     1      -6.337   4.363  12.236  1.00  0.00    -0.013 C 
HETATM   29  C2  UNL     1      -6.048   3.085  11.911  1.00  0.00     0.008 C 
HETATM   30  C1  UNL     1      -4.712   2.718  11.327  1.00  0.00     0.055 C 
BRANCH  29  31
HETATM   31  C30 UNL     1      -7.005   1.974  12.154  1.00  0.00     0.171 C 
HETATM   32  O2  UNL     1      -7.939   1.953  12.936  1.00  0.00    -0.646 OA
BRANCH  31  33
HETATM   33  O3  UNL     1      -6.725   0.898  11.397  1.00  0.00    -0.773 OA
HETATM   34  H46 UNL     1      -7.411   0.253  11.669  1.00  0.00     0.167 HD
ENDBRANCH  31  33
ENDBRANCH  29  31
ENDBRANCH  27  28
ENDBRANCH  26  27
ENDBRANCH  24  26
ENDBRANCH   1  24
TORSDOF 6
ENDMDL
