MODEL 1
REMARK minimizedAffinity -7.50016356
REMARK CNNscore 0.597409666
REMARK CNNaffinity 6.81119108
REMARK  7 active torsions:
REMARK  status: ('A' for Active; 'I' for Inactive)
REMARK    1  A    between atoms: C2_2  and  C30_32 
REMARK    2  A    between atoms: C3_3  and  C4_4 
REMARK    3  A    between atoms: C4_4  and  O1_5 
REMARK    4  A    between atoms: C4_4  and  C5_6 
REMARK    5  A    between atoms: C5_6  and  C6_7 
REMARK    6  A    between atoms: C6_7  and  C8_9 
REMARK    7  A    between atoms: C30_32  and  O3_33 
ROOT
HETATM    1  C8  UNL     1      -1.173   7.103  12.961  1.00  0.00    -0.002 C 
HETATM    2  C9  UNL     1      -1.114   8.212  11.863  1.00  0.00     0.007 C 
HETATM    3  C10 UNL     1      -1.439   9.558  12.543  1.00  0.00     0.015 C 
HETATM    4  C11 UNL     1      -2.005   9.166  13.919  1.00  0.00    -0.013 C 
HETATM    5  C12 UNL     1      -3.512   8.799  13.679  1.00  0.00     0.021 C 
HETATM    6  C13 UNL     1      -2.017  10.218  15.033  1.00  0.00    -0.070 C 
HETATM    7  C14 UNL     1      -2.356  11.485  14.765  1.00  0.00    -0.022 C 
HETATM    8  C15 UNL     1      -2.675  12.493  15.808  1.00  0.00     0.034 C 
HETATM    9  C16 UNL     1      -3.173  11.878  17.146  1.00  0.00     0.013 C 
HETATM   10  C17 UNL     1      -3.475  13.039  18.182  1.00  0.00     0.018 C 
HETATM   11  C18 UNL     1      -4.237  14.211  17.512  1.00  0.00     0.023 C 
HETATM   12  C19 UNL     1      -4.360  12.591  19.367  1.00  0.00     0.023 C 
HETATM   13  C20 UNL     1      -2.145  13.571  18.737  1.00  0.00     0.135 C 
HETATM   14  O2  UNL     1      -1.949  14.774  18.924  1.00  0.00    -0.297 OA
HETATM   15  C21 UNL     1      -1.099  12.563  19.163  1.00  0.00     0.080 C 
HETATM   16  C22 UNL     1      -0.872  11.480  18.116  1.00  0.00     0.017 C 
HETATM   17  C23 UNL     1      -2.172  10.758  17.640  1.00  0.00    -0.031 C 
HETATM   18  C24 UNL     1      -2.733   9.957  18.837  1.00  0.00     0.016 C 
HETATM   19  C25 UNL     1      -1.762   9.736  16.463  1.00  0.00     0.024 C 
HETATM   20  C26 UNL     1      -2.232   8.264  16.609  1.00  0.00     0.010 C 
HETATM   21  C27 UNL     1      -1.662   7.278  15.552  1.00  0.00     0.011 C 
HETATM   22  C28 UNL     1      -1.093   7.944  14.281  1.00  0.00    -0.029 C 
HETATM   23  C29 UNL     1       0.409   8.318  14.505  1.00  0.00     0.016 C 
ENDROOT
BRANCH   1  24
HETATM   24  C6  UNL     1      -0.151   5.954  12.699  1.00  0.00    -0.011 C 
HETATM   25  C7  UNL     1       1.159   6.170  13.465  1.00  0.00     0.010 C 
BRANCH  24  26
HETATM   26  C5  UNL     1      -0.780   4.583  13.083  1.00  0.00     0.040 C 
BRANCH  26  27
HETATM   27  C4  UNL     1      -1.169   3.682  11.901  1.00  0.00     0.141 C 
BRANCH  27  28
HETATM   28  C3  UNL     1      -2.629   3.822  11.549  1.00  0.00     0.009 C 
HETATM   29  C2  UNL     1      -3.594   2.878  11.465  1.00  0.00    -0.062 C 
HETATM   30  C1  UNL     1      -3.356   1.403  11.663  1.00  0.00     0.045 C 
BRANCH  29  31
HETATM   31  C30 UNL     1      -5.039   3.200  11.148  1.00  0.00     0.198 C 
BRANCH  31  32
HETATM   32  O3  UNL     1      -5.493   2.533   9.980  1.00  0.00    -0.397 OA
HETATM   33  H48 UNL     1      -5.485   1.583  10.190  1.00  0.00     0.209 HD
ENDBRANCH  31  32
ENDBRANCH  29  31
ENDBRANCH  27  28
BRANCH  27  34
HETATM   34  O1  UNL     1      -0.353   3.960  10.771  1.00  0.00    -0.392 OA
HETATM   35  H6  UNL     1      -0.772   3.522  10.010  1.00  0.00     0.210 HD
ENDBRANCH  27  34
ENDBRANCH  26  27
ENDBRANCH  24  26
ENDBRANCH   1  24
TORSDOF 7
ENDMDL
