MODEL 1
REMARK minimizedAffinity -7.72712946
REMARK CNNscore 0.503639102
REMARK CNNaffinity 6.01858568
REMARK  6 active torsions:
REMARK  status: ('A' for Active; 'I' for Inactive)
REMARK    1  A    between atoms: C2_2  and  C30_31 
REMARK    2  A    between atoms: C3_3  and  C4_4 
REMARK    3  A    between atoms: C4_4  and  C5_5 
REMARK    4  A    between atoms: C5_5  and  C6_6 
REMARK    5  A    between atoms: C6_6  and  C8_8 
REMARK    6  A    between atoms: C30_31  and  O3_33 
ROOT
HETATM    1  C8  UNL     1     -12.380  45.977 -27.541  1.00  0.00    -0.002 C 
HETATM    2  C9  UNL     1     -11.632  46.644 -26.349  1.00  0.00     0.007 C 
HETATM    3  C10 UNL     1     -10.157  46.813 -26.767  1.00  0.00     0.015 C 
HETATM    4  C11 UNL     1     -10.014  45.970 -28.050  1.00  0.00    -0.013 C 
HETATM    5  C12 UNL     1      -9.776  44.499 -27.576  1.00  0.00     0.021 C 
HETATM    6  C13 UNL     1      -8.866  46.299 -29.001  1.00  0.00    -0.070 C 
HETATM    7  C14 UNL     1      -7.664  46.718 -28.549  1.00  0.00    -0.022 C 
HETATM    8  C15 UNL     1      -6.464  46.973 -29.419  1.00  0.00     0.034 C 
HETATM    9  C16 UNL     1      -6.825  46.965 -30.913  1.00  0.00     0.013 C 
HETATM   10  C17 UNL     1      -5.650  47.239 -31.905  1.00  0.00     0.018 C 
HETATM   11  C18 UNL     1      -4.590  46.135 -31.974  1.00  0.00     0.023 C 
HETATM   12  C19 UNL     1      -4.944  48.564 -31.540  1.00  0.00     0.023 C 
HETATM   13  C20 UNL     1      -6.248  47.410 -33.314  1.00  0.00     0.135 C 
HETATM   14  O1  UNL     1      -5.597  47.892 -34.243  1.00  0.00    -0.297 OA
HETATM   15  C21 UNL     1      -7.685  46.980 -33.525  1.00  0.00     0.080 C 
HETATM   16  C22 UNL     1      -7.940  45.661 -32.812  1.00  0.00     0.017 C 
HETATM   17  C23 UNL     1      -7.758  45.741 -31.267  1.00  0.00    -0.031 C 
HETATM   18  C24 UNL     1      -7.201  44.370 -30.799  1.00  0.00     0.016 C 
HETATM   19  C25 UNL     1      -9.115  46.036 -30.503  1.00  0.00     0.024 C 
HETATM   20  C26 UNL     1     -10.248  45.006 -30.729  1.00  0.00     0.010 C 
HETATM   21  C27 UNL     1     -11.554  45.276 -29.942  1.00  0.00     0.011 C 
HETATM   22  C28 UNL     1     -11.402  46.227 -28.736  1.00  0.00    -0.029 C 
HETATM   23  C29 UNL     1     -11.593  47.700 -29.223  1.00  0.00     0.016 C 
ENDROOT
BRANCH   1  24
HETATM   24  C6  UNL     1     -13.858  46.443 -27.648  1.00  0.00    -0.014 C 
HETATM   25  C7  UNL     1     -14.704  45.514 -28.526  1.00  0.00     0.010 C 
BRANCH  24  26
HETATM   26  C5  UNL     1     -14.541  46.621 -26.265  1.00  0.00     0.008 C 
BRANCH  26  27
HETATM   27  C4  UNL     1     -15.367  45.423 -25.784  1.00  0.00     0.028 C 
BRANCH  27  28
HETATM   28  C3  UNL     1     -16.761  45.849 -25.412  1.00  0.00    -0.013 C 
HETATM   29  C2  UNL     1     -17.174  46.373 -24.240  1.00  0.00     0.008 C 
HETATM   30  C1  UNL     1     -16.321  46.605 -23.029  1.00  0.00     0.055 C 
BRANCH  29  31
HETATM   31  C30 UNL     1     -18.614  46.726 -24.146  1.00  0.00     0.171 C 
HETATM   32  O2  UNL     1     -19.219  47.525 -24.840  1.00  0.00    -0.646 OA
BRANCH  31  33
HETATM   33  O3  UNL     1     -19.240  46.056 -23.164  1.00  0.00    -0.773 OA
HETATM   34  H46 UNL     1     -20.162  46.386 -23.218  1.00  0.00     0.167 HD
ENDBRANCH  31  33
ENDBRANCH  29  31
ENDBRANCH  27  28
ENDBRANCH  26  27
ENDBRANCH  24  26
ENDBRANCH   1  24
TORSDOF 6
ENDMDL
