MODEL 1
REMARK minimizedAffinity -8.78520489
REMARK CNNscore 0.692804456
REMARK CNNaffinity 6.17020941
REMARK  11 active torsions:
REMARK  status: ('A' for Active; 'I' for Inactive)
REMARK    1  A    between atoms: C3_3  and  O1_4 
REMARK    2  A    between atoms: N1_14  and  O2_16 
REMARK    3  A    between atoms: O2_16  and  C13_17 
REMARK    4  A    between atoms: C13_17  and  C14_18 
REMARK       I    between atoms: C14_18  and  N2_20 
REMARK    5  A    between atoms: N2_20  and  C15_21 
REMARK    6  A    between atoms: C15_21  and  C16_22 
REMARK    7  A    between atoms: C15_21  and  C17_25 
REMARK    8  A    between atoms: C16_22  and  O5_24 
REMARK    9  A    between atoms: C17_25  and  O6_26 
REMARK   10  A    between atoms: C17_25  and  C18_27 
REMARK   11  A    between atoms: C22_31  and  N3_32 
ROOT
HETATM    1  C1  UNL     1     -10.883  41.706 -33.996  1.00  0.00     0.015 C 
HETATM    2  C2  UNL     1     -10.113  42.604 -34.190  1.00  0.00    -0.078 C 
HETATM    3  C3  UNL     1      -9.127  43.678 -34.437  1.00  0.00     0.128 C 
HETATM    4  C4  UNL     1      -7.719  43.216 -33.980  1.00  0.00     0.052 C 
HETATM    5  C5  UNL     1      -7.484  43.826 -32.581  1.00  0.00     0.010 C 
HETATM    6  C6  UNL     1      -8.803  44.514 -32.225  1.00  0.00     0.002 C 
HETATM    7  C7  UNL     1      -8.778  45.651 -31.191  1.00  0.00    -0.004 C 
HETATM    8  C8  UNL     1      -8.186  45.183 -29.850  1.00  0.00     0.010 C 
HETATM    9  C9  UNL     1      -8.203  46.293 -28.798  1.00  0.00     0.035 C 
HETATM   10  C10 UNL     1      -9.603  46.837 -28.642  1.00  0.00    -0.069 C 
HETATM   11  C11 UNL     1     -10.221  46.761 -27.449  1.00  0.00     0.030 C 
HETATM   12  C12 UNL     1     -11.660  47.093 -27.327  1.00  0.00     0.032 C 
HETATM   13  N1  UNL     1     -12.131  47.393 -26.147  1.00  0.00    -0.271 N 
ATOM     14  H1  UNL     1     -11.567  47.449 -25.299  1.00  0.00     0.194 HD
HETATM   15  C24 UNL     1     -12.455  47.043 -28.615  1.00  0.00     0.060 C 
HETATM   16  C25 UNL     1     -11.706  47.889 -29.634  1.00  0.00     0.020 C 
HETATM   17  C26 UNL     1     -10.260  47.376 -29.926  1.00  0.00    -0.016 C 
HETATM   18  C27 UNL     1      -9.474  48.617 -30.423  1.00  0.00     0.020 C 
HETATM   19  C28 UNL     1     -10.232  46.211 -30.989  1.00  0.00     0.002 C 
HETATM   20  C29 UNL     1     -10.902  46.559 -32.348  1.00  0.00     0.007 C 
HETATM   21  C30 UNL     1     -10.813  45.421 -33.383  1.00  0.00     0.014 C 
HETATM   22  C31 UNL     1      -9.356  44.967 -33.595  1.00  0.00     0.003 C 
HETATM   23  C32 UNL     1      -8.561  46.146 -34.238  1.00  0.00     0.020 C 
ENDROOT
BRANCH   3  24
HETATM   24  O1  UNL     1      -9.120  43.961 -35.828  1.00  0.00    -0.377 OA
HETATM   25  H2  UNL     1      -9.050  43.108 -36.290  1.00  0.00     0.211 HD
ENDBRANCH   3  24
BRANCH  13  26
HETATM   26  O2  UNL     1     -13.515  47.630 -26.196  1.00  0.00    -0.271 OA
BRANCH  26  27
HETATM   27  C13 UNL     1     -14.215  46.575 -25.547  1.00  0.00     0.303 C 
BRANCH  27  28
HETATM   28  C14 UNL     1     -15.421  47.037 -24.738  1.00  0.00     0.244 C 
HETATM   29  O3  UNL     1     -15.414  48.068 -24.067  1.00  0.00    -0.271 OA
HETATM   30  N2  UNL     1     -16.485  46.168 -24.755  1.00  0.00    -0.342 N 
HETATM   31  H16 UNL     1     -16.492  45.488 -25.520  1.00  0.00     0.163 HD
BRANCH  30  32
HETATM   32  C15 UNL     1     -17.765  46.503 -24.129  1.00  0.00     0.216 C 
BRANCH  32  33
HETATM   33  C16 UNL     1     -18.894  46.334 -25.140  1.00  0.00     0.166 C 
HETATM   34  O4  UNL     1     -20.058  46.691 -25.029  1.00  0.00    -0.648 OA
BRANCH  33  35
HETATM   35  O5  UNL     1     -18.491  45.733 -26.281  1.00  0.00    -0.775 OA
HETATM   36  H18 UNL     1     -19.320  45.654 -26.803  1.00  0.00     0.167 HD
ENDBRANCH  33  35
ENDBRANCH  32  33
BRANCH  32  37
HETATM   37  C17 UNL     1     -18.061  45.631 -22.886  1.00  0.00     0.184 C 
BRANCH  37  38
HETATM   38  O6  UNL     1     -17.331  44.397 -22.988  1.00  0.00    -0.388 OA
HETATM   39  H20 UNL     1     -17.975  43.702 -23.217  1.00  0.00     0.210 HD
ENDBRANCH  37  38
BRANCH  37  40
HETATM   40  C18 UNL     1     -17.727  46.299 -21.554  1.00  0.00    -0.025 A 
HETATM   41  C19 UNL     1     -18.742  46.678 -20.656  1.00  0.00     0.010 A 
HETATM   42  C20 UNL     1     -18.444  47.275 -19.427  1.00  0.00     0.003 A 
HETATM   43  C21 UNL     1     -17.122  47.500 -19.057  1.00  0.00     0.036 A 
HETATM   44  C22 UNL     1     -16.099  47.096 -19.920  1.00  0.00     0.103 A 
HETATM   45  C23 UNL     1     -16.391  46.500 -21.155  1.00  0.00     0.045 A 
BRANCH  44  46
HETATM   46  N3  UNL     1     -14.703  47.296 -19.529  1.00  0.00    -0.116 N 
HETATM   47  O7  UNL     1     -14.098  48.258 -20.028  1.00  0.00    -0.532 OA
HETATM   48  O8  UNL     1     -14.207  46.483 -18.733  1.00  0.00    -0.532 OA
ENDBRANCH  44  46
ENDBRANCH  37  40
ENDBRANCH  32  37
ENDBRANCH  30  32
ENDBRANCH  27  28
ENDBRANCH  26  27
ENDBRANCH  13  26
TORSDOF 11
ENDMDL
