MODEL 1
REMARK minimizedAffinity -7.90214634
REMARK CNNscore 0.512997925
REMARK CNNaffinity 6.78882074
REMARK  19 active torsions:
REMARK  status: ('A' for Active; 'I' for Inactive)
REMARK    1  A    between atoms: O1_2  and  C2_3 
REMARK    2  A    between atoms: C2_3  and  C3_4 
REMARK    3  A    between atoms: C2_3  and  C28_36 
REMARK    4  A    between atoms: C3_4  and  C4_5 
REMARK    5  A    between atoms: C4_5  and  C6_7 
REMARK    6  A    between atoms: C6_7  and  O2_8 
REMARK    7  A    between atoms: C6_7  and  C7_9 
REMARK    8  A    between atoms: C8_10  and  C9_11 
REMARK    9  A    between atoms: C10_12  and  C11_13 
REMARK   10  A    between atoms: C11_13  and  N1_14 
REMARK       I    between atoms: N1_14  and  C12_15 
REMARK   11  A    between atoms: C12_15  and  C13_17 
REMARK   12  A    between atoms: C13_17  and  C16_20 
REMARK   13  A    between atoms: C16_20  and  O4_21 
REMARK   14  A    between atoms: C16_20  and  C17_22 
REMARK   15  A    between atoms: C19_24  and  C20_25 
REMARK   16  A    between atoms: C21_26  and  C22_27 
REMARK   17  A    between atoms: C23_28  and  C24_29 
REMARK   18  A    between atoms: C26_31  and  N2_33 
REMARK   19  A    between atoms: C28_36  and  O7_37 
ROOT
HETATM    1  C9  UNL     1      -1.358  10.310  16.516  1.00  0.00    -0.003 C 
HETATM    2  C10 UNL     1      -2.456   9.913  17.181  1.00  0.00    -0.007 C 
ENDROOT
BRANCH   1   3
HETATM    3  C8  UNL     1      -0.019  10.027  16.978  1.00  0.00    -0.002 C 
HETATM    4  C7  UNL     1       0.744  10.945  17.591  1.00  0.00     0.005 C 
BRANCH   4   5
HETATM    5  C6  UNL     1       2.167  10.798  18.069  1.00  0.00     0.144 C 
BRANCH   5   6
HETATM    6  C4  UNL     1       2.466  11.021  19.568  1.00  0.00     0.016 C 
HETATM    7  C5  UNL     1       1.284  10.731  20.500  1.00  0.00     0.013 C 
BRANCH   6   8
HETATM    8  C3  UNL     1       3.167  12.362  19.899  1.00  0.00     0.042 C 
BRANCH   8   9
HETATM    9  C2  UNL     1       4.718  12.564  19.891  1.00  0.00     0.159 C 
BRANCH   9  10
HETATM   10  O1  UNL     1       5.215  11.308  19.368  1.00  0.00    -0.388 OA
HETATM   11  C1  UNL     1       6.367  11.449  18.531  1.00  0.00     0.202 C 
ENDBRANCH   9  10
BRANCH   9  12
HETATM   12  C28 UNL     1       5.433  12.756  21.285  1.00  0.00     0.133 C 
HETATM   13  C29 UNL     1       5.184  11.540  22.237  1.00  0.00     0.114 C 
HETATM   14  C30 UNL     1       6.287  11.267  23.257  1.00  0.00     0.023 C 
HETATM   15  C31 UNL     1       3.917  11.891  22.972  1.00  0.00     0.227 C 
HETATM   16  O8  UNL     1       3.158  11.087  23.486  1.00  0.00    -0.273 OA
HETATM   17  N3  UNL     1       3.813  13.262  22.985  1.00  0.00    -0.332 N 
HETATM   18  C32 UNL     1       2.620  13.924  23.473  1.00  0.00     0.154 C 
HETATM   19  C33 UNL     1       4.838  13.942  22.113  1.00  0.00     0.183 A 
HETATM   20  C34 UNL     1       4.353  15.280  21.462  1.00  0.00     0.294 A 
HETATM   21  C35 UNL     1       5.751  14.941  22.923  1.00  0.00     0.169 A 
HETATM   22  O9  UNL     1       3.437  15.674  20.772  1.00  0.00    -0.262 OA
HETATM   23  O10 UNL     1       5.242  16.056  22.134  1.00  0.00    -0.311 OA
HETATM   24  C36 UNL     1       7.267  14.986  22.918  1.00  0.00     0.043 C 
BRANCH  12  25
HETATM   25  O7  UNL     1       6.842  12.937  21.110  1.00  0.00    -0.383 OA
HETATM   26  H42 UNL     1       7.193  12.245  20.524  1.00  0.00     0.210 HD
ENDBRANCH  12  25
ENDBRANCH   9  12
ENDBRANCH   8   9
ENDBRANCH   6   8
ENDBRANCH   5   6
BRANCH   5  27
HETATM   27  O2  UNL     1       2.574   9.475  17.712  1.00  0.00    -0.391 OA
HETATM   28  H12 UNL     1       1.837   8.876  17.934  1.00  0.00     0.210 HD
ENDBRANCH   5  27
ENDBRANCH   4   5
ENDBRANCH   1   3
BRANCH   2  29
HETATM   29  C11 UNL     1      -3.879  10.113  16.756  1.00  0.00     0.149 C 
BRANCH  29  30
HETATM   30  N1  UNL     1      -4.462   8.876  16.308  1.00  0.00    -0.357 N 
HETATM   31  C12 UNL     1      -4.637   8.562  14.980  1.00  0.00     0.228 C 
HETATM   32  O3  UNL     1      -4.365   9.349  14.075  1.00  0.00    -0.273 OA
HETATM   33  H19 UNL     1      -4.581   8.124  16.985  1.00  0.00     0.162 HD
BRANCH  31  34
HETATM   34  C13 UNL     1      -5.238   7.168  14.723  1.00  0.00     0.063 C 
HETATM   35  C14 UNL     1      -5.836   7.127  13.303  1.00  0.00     0.028 C 
HETATM   36  C15 UNL     1      -6.395   6.964  15.727  1.00  0.00     0.028 C 
BRANCH  34  37
HETATM   37  C16 UNL     1      -4.188   6.029  14.890  1.00  0.00     0.164 C 
BRANCH  37  38
HETATM   38  O4  UNL     1      -3.304   6.298  15.990  1.00  0.00    -0.390 OA
HETATM   39  H27 UNL     1      -2.718   5.524  16.060  1.00  0.00     0.210 HD
ENDBRANCH  37  38
BRANCH  37  40
HETATM   40  C17 UNL     1      -3.346   5.670  13.673  1.00  0.00    -0.054 C 
HETATM   41  C18 UNL     1      -3.785   4.469  12.864  1.00  0.00     0.046 C 
HETATM   42  C19 UNL     1      -2.233   6.329  13.280  1.00  0.00     0.005 C 
BRANCH  42  43
HETATM   43  C20 UNL     1      -1.642   7.501  13.890  1.00  0.00     0.000 C 
HETATM   44  C21 UNL     1      -0.999   8.497  13.256  1.00  0.00     0.000 C 
BRANCH  44  45
HETATM   45  C22 UNL     1      -0.692   8.576  11.841  1.00  0.00     0.001 C 
HETATM   46  C23 UNL     1       0.484   8.171  11.327  1.00  0.00     0.009 C 
BRANCH  46  47
HETATM   47  C24 UNL     1       0.866   8.179   9.905  1.00  0.00    -0.034 C 
HETATM   48  C25 UNL     1      -0.213   8.631   8.934  1.00  0.00     0.050 C 
HETATM   49  C26 UNL     1       2.100   7.773   9.520  1.00  0.00     0.082 C 
HETATM   50  C27 UNL     1       3.284   7.288  10.294  1.00  0.00     0.075 C 
BRANCH  49  51
HETATM   51  N2  UNL     1       2.405   7.813   8.105  1.00  0.00    -0.120 N 
HETATM   52  O5  UNL     1       2.810   8.889   7.647  1.00  0.00    -0.532 OA
HETATM   53  O6  UNL     1       2.265   6.757   7.474  1.00  0.00    -0.532 OA
ENDBRANCH  49  51
ENDBRANCH  46  47
ENDBRANCH  44  45
ENDBRANCH  42  43
ENDBRANCH  37  40
ENDBRANCH  34  37
ENDBRANCH  31  34
ENDBRANCH  29  30
ENDBRANCH   2  29
TORSDOF 19
ENDMDL
