MODEL 1
REMARK minimizedAffinity -8.46361828
REMARK CNNscore 0.776622415
REMARK CNNaffinity 6.9997983
REMARK  13 active torsions:
REMARK  status: ('A' for Active; 'I' for Inactive)
REMARK    1  A    between atoms: C4_4  and  C5_5 
REMARK    2  A    between atoms: C5_5  and  C6_6 
REMARK    3  A    between atoms: C6_6  and  C7_7 
REMARK    4  A    between atoms: C7_7  and  O1_9 
REMARK    5  A    between atoms: C7_7  and  C9_10 
REMARK    6  A    between atoms: C9_10  and  O2_11 
REMARK    7  A    between atoms: C9_10  and  C10_12 
REMARK    8  A    between atoms: C10_12  and  C11_13 
REMARK    9  A    between atoms: C11_13  and  C12_14 
REMARK   10  A    between atoms: C14_16  and  C15_17 
REMARK   11  A    between atoms: C15_17  and  C16_18 
REMARK   12  A    between atoms: C16_18  and  C17_19 
REMARK   13  A    between atoms: C23_25  and  O3_26 
ROOT
HETATM    1  C12 UNL     1      -1.785   8.994  13.190  1.00  0.00    -0.087 C 
HETATM    2  C13 UNL     1      -1.531  10.069  14.215  1.00  0.00     0.043 C 
HETATM    3  C14 UNL     1      -3.000   8.468  12.922  1.00  0.00    -0.024 C 
ENDROOT
BRANCH   1   4
HETATM    4  C11 UNL     1      -0.520   8.503  12.494  1.00  0.00     0.036 C 
BRANCH   4   5
HETATM    5  C10 UNL     1       0.728   8.235  13.340  1.00  0.00     0.039 C 
BRANCH   5   6
HETATM    6  C9  UNL     1       1.589   7.016  12.968  1.00  0.00     0.152 C 
BRANCH   6   7
HETATM    7  C7  UNL     1       1.979   6.794  11.469  1.00  0.00     0.080 C 
HETATM    8  C8  UNL     1       0.834   6.203  10.644  1.00  0.00     0.048 C 
BRANCH   7   9
HETATM    9  C6  UNL     1       2.562   8.078  10.826  1.00  0.00     0.044 C 
BRANCH   9  10
HETATM   10  C5  UNL     1       3.395   7.901   9.546  1.00  0.00     0.030 C 
BRANCH  10  11
HETATM   11  C4  UNL     1       2.592   7.975   8.277  1.00  0.00    -0.025 C 
HETATM   12  C2  UNL     1       2.358   6.987   7.390  1.00  0.00    -0.091 C 
HETATM   13  C1  UNL     1       2.829   5.567   7.532  1.00  0.00     0.042 C 
HETATM   14  C3  UNL     1       1.553   7.253   6.145  1.00  0.00     0.042 C 
ENDBRANCH  10  11
ENDBRANCH   9  10
ENDBRANCH   7   9
BRANCH   7  15
HETATM   15  O1  UNL     1       3.005   5.779  11.486  1.00  0.00    -0.388 OA
HETATM   16  H15 UNL     1       3.610   6.058  12.205  1.00  0.00     0.210 HD
ENDBRANCH   7  15
ENDBRANCH   6   7
BRANCH   6  17
HETATM   17  O2  UNL     1       2.835   7.154  13.698  1.00  0.00    -0.393 OA
HETATM   18  H17 UNL     1       2.613   7.135  14.646  1.00  0.00     0.210 HD
ENDBRANCH   6  17
ENDBRANCH   5   6
ENDBRANCH   4   5
ENDBRANCH   1   4
BRANCH   3  19
HETATM   19  C15 UNL     1      -4.395   8.737  13.444  1.00  0.00     0.030 C 
BRANCH  19  20
HETATM   20  C16 UNL     1      -5.467   7.652  13.346  1.00  0.00     0.042 C 
BRANCH  20  21
HETATM   21  C17 UNL     1      -5.258   6.368  14.198  1.00  0.00     0.065 C 
HETATM   22  C18 UNL     1      -4.529   6.821  15.486  1.00  0.00     0.046 C 
HETATM   23  C19 UNL     1      -6.550   5.662  14.645  1.00  0.00     0.043 C 
HETATM   24  C20 UNL     1      -7.164   4.767  13.587  1.00  0.00     0.044 C 
HETATM   25  C21 UNL     1      -6.107   3.994  12.864  1.00  0.00    -0.021 A 
HETATM   26  C22 UNL     1      -6.471   2.856  12.132  1.00  0.00     0.046 A 
HETATM   27  C27 UNL     1      -4.770   4.399  12.878  1.00  0.00     0.082 A 
HETATM   28  C23 UNL     1      -5.506   2.125  11.450  1.00  0.00     0.066 A 
HETATM   29  C24 UNL     1      -4.172   2.512  11.470  1.00  0.00     0.046 A 
HETATM   30  C25 UNL     1      -3.793   3.658  12.185  1.00  0.00    -0.025 A 
HETATM   31  C26 UNL     1      -2.352   4.088  12.201  1.00  0.00     0.051 C 
HETATM   32  O4  UNL     1      -4.319   5.504  13.542  1.00  0.00    -0.340 OA
BRANCH  28  33
HETATM   33  O3  UNL     1      -5.915   1.015  10.767  1.00  0.00    -0.361 OA
HETATM   34  H38 UNL     1      -5.137   0.601  10.361  1.00  0.00     0.217 HD
ENDBRANCH  28  33
ENDBRANCH  20  21
ENDBRANCH  19  20
ENDBRANCH   3  19
TORSDOF 13
ENDMDL
