MODEL 1
REMARK minimizedAffinity -7.34200525
REMARK CNNscore 0.789848387
REMARK CNNaffinity 6.9624157
REMARK  13 active torsions:
REMARK  status: ('A' for Active; 'I' for Inactive)
REMARK    1  A    between atoms: C4_4  and  C5_5 
REMARK    2  A    between atoms: C5_5  and  C6_6 
REMARK    3  A    between atoms: C6_6  and  C7_7 
REMARK    4  A    between atoms: C9_9  and  C10_10 
REMARK    5  A    between atoms: C11_11  and  C12_12 
REMARK    6  A    between atoms: C14_14  and  C15_15 
REMARK    7  A    between atoms: C18_18  and  C19_19 
REMARK    8  A    between atoms: C19_19  and  C20_20 
REMARK    9  A    between atoms: C20_20  and  C21_21 
REMARK   10  A    between atoms: C21_21  and  O1_22 
REMARK   11  A    between atoms: C23_24  and  C25_26 
REMARK   12  A    between atoms: C28_30  and  O3_32 
REMARK   13  A    between atoms: C30_33  and  O4_34 
ROOT
HETATM    1  C15 UNL     1      -0.060  52.024 -13.512  1.00  0.00     0.149 C 
HETATM    2  C16 UNL     1      -1.355  52.608 -12.967  1.00  0.00     0.054 C 
HETATM    3  C17 UNL     1      -1.357  52.251 -11.459  1.00  0.00     0.050 C 
HETATM    4  C18 UNL     1      -0.816  53.456 -10.553  1.00  0.00     0.032 C 
HETATM    5  C22 UNL     1      -1.003  53.213  -9.026  1.00  0.00    -0.066 C 
HETATM    6  C23 UNL     1      -0.730  54.148  -8.073  1.00  0.00    -0.021 C 
HETATM    7  C24 UNL     1      -0.434  55.603  -8.318  1.00  0.00     0.052 C 
HETATM    8  C26 UNL     1      -1.555  51.839  -8.676  1.00  0.00     0.038 C 
HETATM    9  C27 UNL     1      -2.806  51.452  -9.474  1.00  0.00     0.042 C 
HETATM   10  C28 UNL     1      -2.811  51.919 -10.947  1.00  0.00     0.067 C 
HETATM   11  C29 UNL     1      -3.797  53.097 -11.099  1.00  0.00     0.047 C 
HETATM   12  C30 UNL     1      -0.414  51.009 -11.457  1.00  0.00     0.270 C 
HETATM   13  O5  UNL     1       0.281  50.910 -12.692  1.00  0.00    -0.351 OA
ENDROOT
BRANCH   4  14
HETATM   14  C19 UNL     1       0.573  54.048 -10.940  1.00  0.00     0.012 C 
BRANCH  14  15
HETATM   15  C20 UNL     1       1.796  53.635 -10.110  1.00  0.00     0.027 C 
BRANCH  15  16
HETATM   16  C21 UNL     1       2.626  52.573 -10.833  1.00  0.00     0.164 C 
BRANCH  16  17
HETATM   17  O1  UNL     1       2.843  52.982 -12.175  1.00  0.00    -0.401 OA
HETATM   18  H32 UNL     1       3.309  52.260 -12.632  1.00  0.00     0.209 HD
ENDBRANCH  16  17
ENDBRANCH  15  16
ENDBRANCH  14  15
ENDBRANCH   4  14
BRANCH  10  19
HETATM   19  O3  UNL     1      -3.401  50.872 -11.734  1.00  0.00    -0.389 OA
HETATM   20  H44 UNL     1      -2.778  50.113 -11.691  1.00  0.00     0.210 HD
ENDBRANCH  10  19
BRANCH  12  21
HETATM   21  O4  UNL     1      -1.108  49.777 -11.318  1.00  0.00    -0.370 OA
HETATM   22  H46 UNL     1      -0.403  49.111 -11.439  1.00  0.00     0.212 HD
ENDBRANCH  12  21
BRANCH   1  23
HETATM   23  C14 UNL     1      -0.039  51.650 -14.968  1.00  0.00     0.011 C 
HETATM   24  C12 UNL     1       0.983  51.627 -15.851  1.00  0.00    -0.063 C 
HETATM   25  C13 UNL     1       2.415  51.916 -15.484  1.00  0.00     0.048 C 
BRANCH  24  26
HETATM   26  C11 UNL     1       0.682  51.328 -17.254  1.00  0.00     0.006 C 
HETATM   27  C10 UNL     1       0.398  52.213 -18.227  1.00  0.00     0.001 C 
BRANCH  27  28
HETATM   28  C9  UNL     1       0.049  51.811 -19.575  1.00  0.00     0.002 C 
HETATM   29  C7  UNL     1       0.382  52.444 -20.720  1.00  0.00    -0.084 C 
HETATM   30  C8  UNL     1       1.262  53.665 -20.821  1.00  0.00     0.043 C 
BRANCH  29  31
HETATM   31  C6  UNL     1      -0.107  51.897 -22.056  1.00  0.00     0.037 C 
BRANCH  31  32
HETATM   32  C5  UNL     1      -1.448  51.143 -22.000  1.00  0.00     0.031 C 
BRANCH  32  33
HETATM   33  C4  UNL     1      -1.294  49.652 -21.849  1.00  0.00    -0.024 C 
HETATM   34  C2  UNL     1      -2.248  48.702 -21.913  1.00  0.00    -0.091 C 
HETATM   35  C1  UNL     1      -1.882  47.247 -21.753  1.00  0.00     0.042 C 
HETATM   36  C3  UNL     1      -3.717  48.941 -22.133  1.00  0.00     0.042 C 
ENDBRANCH  32  33
ENDBRANCH  31  32
ENDBRANCH  29  31
ENDBRANCH  27  28
ENDBRANCH  24  26
ENDBRANCH   1  23
BRANCH   6  37
HETATM   37  C25 UNL     1      -0.670  53.808  -6.610  1.00  0.00     0.265 C 
HETATM   38  O2  UNL     1      -1.202  54.491  -5.738  1.00  0.00    -0.302 OA
ENDBRANCH   6  37
TORSDOF 13
ENDMDL
