MODEL 1
REMARK minimizedAffinity -9.73373222
REMARK  9 active torsions:
REMARK  status: ('A' for Active; 'I' for Inactive)
REMARK    1  A    between atoms: C2_2  and  C3_3 
REMARK    2  A    between atoms: C2_2  and  C9_11 
REMARK    3  A    between atoms: C3_3  and  C4_4 
REMARK    4  A    between atoms: C4_4  and  C5_5 
REMARK    5  A    between atoms: C6_6  and  C7_7 
REMARK    6  A    between atoms: C6_6  and  C8_9 
REMARK    7  A    between atoms: C7_7  and  O1_8 
REMARK    8  A    between atoms: C8_9  and  O2_10 
REMARK    9  A    between atoms: C30_34  and  O5_35 
ROOT
HETATM    1  C9  UNL     1      -1.137  50.889 -23.027  1.00  0.00    -0.001 C 
HETATM    2  C10 UNL     1      -0.382  52.236 -23.211  1.00  0.00     0.007 C 
HETATM    3  C11 UNL     1       0.080  52.683 -21.813  1.00  0.00     0.015 C 
HETATM    4  C12 UNL     1       0.038  51.402 -20.959  1.00  0.00    -0.009 C 
HETATM    5  C13 UNL     1       1.337  50.599 -21.301  1.00  0.00     0.021 C 
HETATM    6  C14 UNL     1       0.028  51.465 -19.428  1.00  0.00    -0.032 C 
HETATM    7  C15 UNL     1      -0.439  50.413 -18.697  1.00  0.00     0.002 C 
HETATM    8  C16 UNL     1      -1.182  49.297 -19.424  1.00  0.00     0.157 C 
HETATM    9  O3  UNL     1      -1.647  48.339 -18.809  1.00  0.00    -0.293 OA
HETATM   10  C17 UNL     1      -1.369  49.342 -20.935  1.00  0.00     0.094 C 
HETATM   11  C18 UNL     1      -1.298  50.765 -21.478  1.00  0.00    -0.022 C 
HETATM   12  C19 UNL     1      -2.557  51.532 -20.981  1.00  0.00     0.017 C 
HETATM   13  C20 UNL     1      -0.276  50.320 -17.149  1.00  0.00    -0.008 C 
HETATM   14  C21 UNL     1      -1.648  50.717 -16.562  1.00  0.00     0.021 C 
HETATM   15  C22 UNL     1       0.112  48.894 -16.662  1.00  0.00     0.022 C 
HETATM   16  C23 UNL     1       0.455  48.802 -15.182  1.00  0.00     0.080 C 
HETATM   17  C24 UNL     1       1.554  49.761 -14.809  1.00  0.00     0.135 C 
HETATM   18  O4  UNL     1       2.510  49.374 -14.136  1.00  0.00    -0.297 OA
HETATM   19  C25 UNL     1       1.377  51.227 -15.221  1.00  0.00     0.018 C 
HETATM   20  C26 UNL     1       0.426  51.901 -14.222  1.00  0.00     0.023 C 
HETATM   21  C27 UNL     1       2.754  51.929 -15.083  1.00  0.00     0.023 C 
HETATM   22  C28 UNL     1       0.922  51.262 -16.721  1.00  0.00     0.016 C 
HETATM   23  C29 UNL     1       0.687  52.675 -17.260  1.00  0.00     0.043 C 
HETATM   24  C30 UNL     1       0.659  52.682 -18.789  1.00  0.00     0.149 C 
ENDROOT
BRANCH   1  25
HETATM   25  C2  UNL     1      -2.320  50.725 -24.028  1.00  0.00    -0.014 C 
HETATM   26  C1  UNL     1      -2.828  49.296 -24.274  1.00  0.00     0.010 C 
BRANCH  25  27
HETATM   27  C3  UNL     1      -2.106  51.405 -25.402  1.00  0.00     0.008 C 
BRANCH  27  28
HETATM   28  C4  UNL     1      -1.364  50.586 -26.465  1.00  0.00     0.028 C 
BRANCH  28  29
HETATM   29  C5  UNL     1       0.129  50.568 -26.289  1.00  0.00    -0.020 C 
HETATM   30  C6  UNL     1       1.016  51.524 -26.640  1.00  0.00    -0.037 C 
BRANCH  30  31
HETATM   31  C7  UNL     1       0.627  52.843 -27.252  1.00  0.00     0.200 C 
BRANCH  31  32
HETATM   32  O1  UNL     1       0.528  53.819 -26.228  1.00  0.00    -0.397 OA
HETATM   33  H12 UNL     1       1.422  53.922 -25.855  1.00  0.00     0.209 HD
ENDBRANCH  31  32
ENDBRANCH  30  31
BRANCH  30  34
HETATM   34  C8  UNL     1       2.506  51.394 -26.403  1.00  0.00     0.200 C 
BRANCH  34  35
HETATM   35  O2  UNL     1       3.244  51.531 -27.612  1.00  0.00    -0.397 OA
HETATM   36  H15 UNL     1       4.182  51.448 -27.373  1.00  0.00     0.209 HD
ENDBRANCH  34  35
ENDBRANCH  30  34
ENDBRANCH  28  29
ENDBRANCH  27  28
ENDBRANCH  25  27
ENDBRANCH   1  25
BRANCH  24  37
HETATM   37  O5  UNL     1      -0.069  53.839 -19.181  1.00  0.00    -0.391 OA
HETATM   38  H46 UNL     1       0.370  54.612 -18.790  1.00  0.00     0.210 HD
ENDBRANCH  24  37
TORSDOF 9
ENDMDL
