MODEL 1
REMARK minimizedAffinity -9.38897991
REMARK  6 active torsions:
REMARK  status: ('A' for Active; 'I' for Inactive)
REMARK    1  A    between atoms: C2_2  and  C30_32 
REMARK    2  A    between atoms: C3_3  and  C4_4 
REMARK    3  A    between atoms: C4_4  and  C5_6 
REMARK    4  A    between atoms: C5_6  and  C6_7 
REMARK    5  A    between atoms: C6_7  and  C8_9 
REMARK    6  A    between atoms: C30_32  and  O4_34 
ROOT
HETATM    1  C8  UNL     1      -3.093  50.760 -25.091  1.00  0.00    -0.001 C 
HETATM    2  C9  UNL     1      -2.899  52.254 -24.699  1.00  0.00     0.007 C 
HETATM    3  C10 UNL     1      -3.145  52.369 -23.183  1.00  0.00     0.015 C 
HETATM    4  C11 UNL     1      -3.774  51.018 -22.781  1.00  0.00    -0.013 C 
HETATM    5  C12 UNL     1      -5.300  51.145 -23.088  1.00  0.00     0.021 C 
HETATM    6  C13 UNL     1      -3.666  50.581 -21.325  1.00  0.00    -0.070 C 
HETATM    7  C14 UNL     1      -3.583  51.453 -20.309  1.00  0.00    -0.022 C 
HETATM    8  C15 UNL     1      -3.519  51.080 -18.862  1.00  0.00     0.034 C 
HETATM    9  C16 UNL     1      -3.720  49.586 -18.495  1.00  0.00     0.013 C 
HETATM   10  C17 UNL     1      -2.499  48.940 -17.746  1.00  0.00     0.018 C 
HETATM   11  C18 UNL     1      -2.194  49.725 -16.446  1.00  0.00     0.023 C 
HETATM   12  C19 UNL     1      -1.219  48.868 -18.589  1.00  0.00     0.023 C 
HETATM   13  C20 UNL     1      -2.860  47.508 -17.311  1.00  0.00     0.135 C 
HETATM   14  O2  UNL     1      -2.184  46.884 -16.491  1.00  0.00    -0.297 OA
HETATM   15  C21 UNL     1      -4.096  46.880 -17.907  1.00  0.00     0.080 C 
HETATM   16  C22 UNL     1      -4.147  47.203 -19.389  1.00  0.00     0.017 C 
HETATM   17  C23 UNL     1      -4.331  48.722 -19.671  1.00  0.00    -0.031 C 
HETATM   18  C24 UNL     1      -5.860  49.015 -19.712  1.00  0.00     0.016 C 
HETATM   19  C25 UNL     1      -3.666  49.082 -21.052  1.00  0.00     0.024 C 
HETATM   20  C26 UNL     1      -4.188  48.245 -22.250  1.00  0.00     0.010 C 
HETATM   21  C27 UNL     1      -3.632  48.632 -23.640  1.00  0.00     0.011 C 
HETATM   22  C28 UNL     1      -2.984  50.030 -23.711  1.00  0.00    -0.029 C 
HETATM   23  C29 UNL     1      -1.473  49.898 -23.338  1.00  0.00     0.016 C 
ENDROOT
BRANCH   1  24
HETATM   24  C6  UNL     1      -2.170  50.328 -26.264  1.00  0.00    -0.007 C 
HETATM   25  C7  UNL     1      -2.441  48.898 -26.742  1.00  0.00     0.011 C 
BRANCH  24  26
HETATM   26  C5  UNL     1      -2.220  51.313 -27.457  1.00  0.00     0.087 C 
BRANCH  26  27
HETATM   27  C4  UNL     1      -1.115  52.358 -27.474  1.00  0.00     0.150 C 
HETATM   28  O1  UNL     1      -1.344  53.559 -27.584  1.00  0.00    -0.293 OA
BRANCH  27  29
HETATM   29  C3  UNL     1       0.282  51.845 -27.398  1.00  0.00     0.063 C 
HETATM   30  C2  UNL     1       1.089  51.989 -26.331  1.00  0.00     0.015 C 
HETATM   31  C1  UNL     1       0.738  52.620 -25.017  1.00  0.00     0.055 C 
BRANCH  30  32
HETATM   32  C30 UNL     1       2.447  51.425 -26.498  1.00  0.00     0.171 C 
HETATM   33  O3  UNL     1       2.909  50.470 -25.898  1.00  0.00    -0.646 OA
BRANCH  32  34
HETATM   34  O4  UNL     1       3.168  52.079 -27.421  1.00  0.00    -0.773 OA
HETATM   35  H44 UNL     1       4.024  51.601 -27.439  1.00  0.00     0.167 HD
ENDBRANCH  32  34
ENDBRANCH  30  32
ENDBRANCH  27  29
ENDBRANCH  26  27
ENDBRANCH  24  26
ENDBRANCH   1  24
TORSDOF 6
ENDMDL
