MODEL 1
REMARK minimizedAffinity -9.59896946
REMARK CNNscore 0.559248149
REMARK CNNaffinity 7.00537491
REMARK  0 active torsions:
REMARK  status: ('A' for Active; 'I' for Inactive)
ROOT
HETATM    1  C1  UNL     1       0.198  10.473  17.920  1.00  0.00     0.023 C 
HETATM    2  C2  UNL     1      -0.542  10.791  16.602  1.00  0.00     0.017 C 
HETATM    3  C3  UNL     1       0.428  11.589  15.711  1.00  0.00     0.023 C 
HETATM    4  C4  UNL     1      -1.732  11.681  16.976  1.00  0.00     0.135 C 
HETATM    5  O1  UNL     1      -1.632  12.902  17.104  1.00  0.00    -0.297 OA
HETATM    6  C5  UNL     1      -3.034  10.983  17.274  1.00  0.00     0.080 C 
HETATM    7  C6  UNL     1      -3.516  10.127  16.107  1.00  0.00     0.017 C 
HETATM    8  C7  UNL     1      -2.398   9.603  15.135  1.00  0.00    -0.035 C 
HETATM    9  C8  UNL     1      -2.284  10.647  14.000  1.00  0.00     0.016 C 
HETATM   10  C9  UNL     1      -2.839   8.166  14.609  1.00  0.00     0.003 C 
HETATM   11  C10 UNL     1      -4.156   8.166  13.804  1.00  0.00     0.006 C 
HETATM   12  C11 UNL     1      -4.701   6.757  13.555  1.00  0.00     0.006 C 
HETATM   13  C12 UNL     1      -3.674   5.835  12.889  1.00  0.00    -0.000 C 
HETATM   14  C13 UNL     1      -4.206   4.419  12.563  1.00  0.00     0.009 C 
HETATM   15  C14 UNL     1      -5.517   4.231  11.773  1.00  0.00     0.067 A 
HETATM   16  C15 UNL     1      -5.333   2.840  11.092  1.00  0.00     0.140 A 
HETATM   17  C16 UNL     1      -3.925   2.348  11.450  1.00  0.00     0.042 C 
HETATM   18  C17 UNL     1      -3.156   3.642  11.722  1.00  0.00    -0.037 C 
HETATM   19  C18 UNL     1      -2.798   4.293  10.360  1.00  0.00     0.015 C 
HETATM   20  C19 UNL     1      -1.883   3.456  12.556  1.00  0.00     0.010 C 
HETATM   21  C20 UNL     1      -1.302   4.810  13.014  1.00  0.00     0.011 C 
HETATM   22  C21 UNL     1      -2.327   5.763  13.727  1.00  0.00    -0.032 C 
HETATM   23  C22 UNL     1      -2.597   5.099  15.121  1.00  0.00     0.016 C 
HETATM   24  C23 UNL     1      -1.740   7.276  13.907  1.00  0.00    -0.032 C 
HETATM   25  C24 UNL     1      -1.341   7.854  12.516  1.00  0.00     0.016 C 
HETATM   26  C25 UNL     1      -0.459   7.288  14.785  1.00  0.00     0.011 C 
HETATM   27  C26 UNL     1       0.016   8.688  15.182  1.00  0.00     0.007 C 
HETATM   28  C27 UNL     1      -1.068   9.457  15.958  1.00  0.00     0.009 C 
HETATM   29  O2  UNL     1      -6.305   1.914  11.602  1.00  0.00    -0.313 OA
HETATM   30  C28 UNL     1      -7.144   2.546  12.468  1.00  0.00     0.297 A 
HETATM   31  O3  UNL     1      -8.088   2.032  13.044  1.00  0.00    -0.262 OA
HETATM   32  C29 UNL     1      -6.757   3.962  12.557  1.00  0.00     0.175 A 
HETATM   33  C30 UNL     1      -7.794   5.027  12.822  1.00  0.00     0.218 A 
HETATM   34  O4  UNL     1      -6.870   4.599  13.833  1.00  0.00    -0.364 OA
ENDROOT
TORSDOF 0
ENDMDL
