MODEL 1
REMARK minimizedAffinity -7.6028347
REMARK CNNscore 0.572908223
REMARK CNNaffinity 7.51395988
REMARK  18 active torsions:
REMARK  status: ('A' for Active; 'I' for Inactive)
REMARK    1  A    between atoms: C2_2  and  C3_3 
REMARK    2  A    between atoms: C2_2  and  C29_35 
REMARK    3  A    between atoms: C4_4  and  C5_5 
REMARK    4  A    between atoms: C6_6  and  C7_7 
REMARK    5  A    between atoms: C6_6  and  C8_9 
REMARK    6  A    between atoms: C7_7  and  O1_8 
REMARK    7  A    between atoms: C12_13  and  O2_14 
REMARK    8  A    between atoms: C13_15  and  C14_16 
REMARK    9  A    between atoms: C14_16  and  C15_17 
REMARK   10  A    between atoms: C15_17  and  C16_18 
REMARK   11  A    between atoms: C16_18  and  O3_19 
REMARK   12  A    between atoms: C18_21  and  C19_22 
REMARK   13  A    between atoms: C25_29  and  O5_30 
REMARK   14  A    between atoms: C25_29  and  C26_31 
REMARK   15  A    between atoms: C26_31  and  C27_32 
REMARK   16  A    between atoms: C27_32  and  N1_33 
REMARK   17  A    between atoms: C29_35  and  C30_36 
REMARK   18  A    between atoms: C30_36  and  C31_37 
ROOT
HETATM    1  C8  UNL     1      -1.554   5.476  12.586  1.00  0.00     0.046 C 
HETATM    2  C9  UNL     1      -0.823   6.567  11.800  1.00  0.00     0.013 C 
HETATM    3  C10 UNL     1      -0.575   7.680  12.832  1.00  0.00     0.017 C 
HETATM    4  C11 UNL     1      -0.719   7.039  14.269  1.00  0.00     0.025 C 
HETATM    5  C12 UNL     1      -0.797   5.508  13.936  1.00  0.00     0.138 C 
HETATM    6  C13 UNL     1      -2.144   7.562  14.829  1.00  0.00     0.029 C 
HETATM    7  C17 UNL     1      -2.152   9.011  15.347  1.00  0.00    -0.061 C 
HETATM    8  C18 UNL     1      -3.152   9.905  15.130  1.00  0.00    -0.017 C 
HETATM    9  C20 UNL     1      -3.170  11.297  15.718  1.00  0.00     0.042 C 
HETATM   10  C21 UNL     1      -2.187  11.482  16.866  1.00  0.00     0.005 C 
HETATM   11  C22 UNL     1      -0.837  10.914  16.479  1.00  0.00     0.009 C 
HETATM   12  C23 UNL     1      -0.935   9.404  16.178  1.00  0.00     0.018 C 
HETATM   13  C24 UNL     1       0.384   8.969  15.525  1.00  0.00     0.047 C 
HETATM   14  C25 UNL     1       0.465   7.459  15.233  1.00  0.00     0.071 C 
ENDROOT
BRANCH   5  15
HETATM   15  O2  UNL     1       0.511   4.967  13.801  1.00  0.00    -0.394 OA
HETATM   16  H15 UNL     1       0.441   4.078  13.391  1.00  0.00     0.210 HD
ENDBRANCH   5  15
BRANCH   6  17
HETATM   17  C14 UNL     1      -3.026   6.634  15.721  1.00  0.00     0.012 C 
BRANCH  17  18
HETATM   18  C15 UNL     1      -4.290   6.014  15.140  1.00  0.00     0.027 C 
BRANCH  18  19
HETATM   19  C16 UNL     1      -5.464   6.128  16.113  1.00  0.00     0.164 C 
BRANCH  19  20
HETATM   20  O3  UNL     1      -6.032   7.429  16.045  1.00  0.00    -0.401 OA
HETATM   21  H23 UNL     1      -5.307   8.076  16.088  1.00  0.00     0.209 HD
ENDBRANCH  19  20
ENDBRANCH  18  19
ENDBRANCH  17  18
ENDBRANCH   6  17
BRANCH  14  22
HETATM   22  O5  UNL     1       0.232   6.802  16.500  1.00  0.00    -0.389 OA
HETATM   23  H34 UNL     1       0.475   5.866  16.378  1.00  0.00     0.210 HD
ENDBRANCH  14  22
BRANCH  14  24
HETATM   24  C26 UNL     1       1.956   7.079  14.928  1.00  0.00     0.068 C 
BRANCH  24  25
HETATM   25  C27 UNL     1       3.137   7.770  15.611  1.00  0.00     0.272 C 
BRANCH  25  26
HETATM   26  N1  UNL     1       4.184   8.280  14.723  1.00  0.00     0.079 N 
HETATM   27  C28 UNL     1       5.509   7.784  15.076  1.00  0.00     0.306 C 
HETATM   28  H39 UNL     1       3.973   7.978  13.771  1.00  0.00     0.315 HD
ENDBRANCH  25  26
ENDBRANCH  24  25
ENDBRANCH  14  24
BRANCH   1  29
HETATM   29  C6  UNL     1      -1.761   4.128  11.899  1.00  0.00    -0.050 C 
HETATM   30  C5  UNL     1      -2.954   3.496  11.815  1.00  0.00     0.005 C 
BRANCH  30  31
HETATM   31  C4  UNL     1      -4.216   3.912  12.393  1.00  0.00     0.001 C 
HETATM   32  C3  UNL     1      -5.400   3.386  12.036  1.00  0.00     0.006 C 
BRANCH  32  33
HETATM   33  C2  UNL     1      -6.704   3.748  12.585  1.00  0.00    -0.067 C 
HETATM   34  C1  UNL     1      -7.590   2.777  12.872  1.00  0.00     0.019 C 
BRANCH  33  35
HETATM   35  C29 UNL     1      -7.051   5.199  12.874  1.00  0.00     0.041 C 
BRANCH  35  36
HETATM   36  C30 UNL     1      -8.549   5.465  13.108  1.00  0.00     0.032 C 
BRANCH  36  37
HETATM   37  C31 UNL     1      -8.799   6.570  14.101  1.00  0.00    -0.024 C 
HETATM   38  C32 UNL     1      -9.980   7.090  14.490  1.00  0.00    -0.091 C 
HETATM   39  C33 UNL     1     -11.335   6.651  14.003  1.00  0.00     0.042 C 
HETATM   40  C34 UNL     1     -10.028   8.203  15.505  1.00  0.00     0.042 C 
ENDBRANCH  36  37
ENDBRANCH  35  36
ENDBRANCH  33  35
ENDBRANCH  32  33
ENDBRANCH  30  31
BRANCH  29  41
HETATM   41  C7  UNL     1      -0.567   3.465  11.262  1.00  0.00     0.198 C 
BRANCH  41  42
HETATM   42  O1  UNL     1      -0.542   2.113  11.706  1.00  0.00    -0.397 OA
HETATM   43  H8  UNL     1      -1.203   1.640  11.168  1.00  0.00     0.209 HD
ENDBRANCH  41  42
ENDBRANCH  29  41
ENDBRANCH   1  29
BRANCH   8  44
HETATM   44  C19 UNL     1      -4.377   9.605  14.321  1.00  0.00     0.265 C 
HETATM   45  O4  UNL     1      -4.331   9.145  13.184  1.00  0.00    -0.302 OA
ENDBRANCH   8  44
TORSDOF 18
ENDMDL
