MODEL 1
REMARK minimizedAffinity -8.40094852
REMARK  14 active torsions:
REMARK  status: ('A' for Active; 'I' for Inactive)
REMARK    1  A    between atoms: C2_2  and  C3_3 
REMARK    2  A    between atoms: C2_2  and  C27_31 
REMARK    3  A    between atoms: C4_4  and  C5_5 
REMARK    4  A    between atoms: C6_6  and  C7_7 
REMARK    5  A    between atoms: C6_6  and  C9_9 
REMARK    6  A    between atoms: C13_13  and  O1_14 
REMARK    7  A    between atoms: C15_16  and  C16_17 
REMARK    8  A    between atoms: C16_17  and  C17_18 
REMARK    9  A    between atoms: C17_18  and  C18_19 
REMARK   10  A    between atoms: C18_19  and  O2_20 
REMARK   11  A    between atoms: C20_22  and  C22_24 
REMARK   12  A    between atoms: C25_28  and  O4_30 
REMARK   13  A    between atoms: C27_31  and  C28_32 
REMARK   14  A    between atoms: C28_32  and  C29_33 
ROOT
HETATM    1  C9  UNL     1      -3.817  51.692 -24.391  1.00  0.00     0.044 C 
HETATM    2  C10 UNL     1      -3.772  52.263 -22.965  1.00  0.00     0.013 C 
HETATM    3  C11 UNL     1      -3.617  51.058 -22.062  1.00  0.00     0.017 C 
HETATM    4  C12 UNL     1      -4.441  49.904 -22.699  1.00  0.00     0.025 C 
HETATM    5  C13 UNL     1      -4.174  50.163 -24.245  1.00  0.00     0.141 C 
HETATM    6  C15 UNL     1      -3.944  48.537 -22.009  1.00  0.00     0.029 C 
HETATM    7  C19 UNL     1      -5.050  47.459 -21.961  1.00  0.00    -0.066 C 
HETATM    8  C20 UNL     1      -5.278  46.636 -20.904  1.00  0.00    -0.021 C 
HETATM    9  C21 UNL     1      -4.520  46.624 -19.599  1.00  0.00     0.052 C 
HETATM   10  C23 UNL     1      -5.933  47.559 -23.177  1.00  0.00     0.038 C 
HETATM   11  C24 UNL     1      -6.770  48.834 -23.069  1.00  0.00     0.042 C 
HETATM   12  C25 UNL     1      -6.009  50.046 -22.450  1.00  0.00     0.065 C 
HETATM   13  C26 UNL     1      -6.384  50.226 -20.965  1.00  0.00     0.047 C 
ENDROOT
BRANCH   5  14
HETATM   14  O1  UNL     1      -3.168  49.324 -24.802  1.00  0.00    -0.389 OA
HETATM   15  C14 UNL     1      -3.640  48.515 -25.875  1.00  0.00     0.202 C 
ENDBRANCH   5  14
BRANCH   6  16
HETATM   16  C16 UNL     1      -2.619  47.955 -22.567  1.00  0.00     0.012 C 
BRANCH  16  17
HETATM   17  C17 UNL     1      -1.679  47.333 -21.526  1.00  0.00     0.027 C 
BRANCH  17  18
HETATM   18  C18 UNL     1      -1.102  48.378 -20.571  1.00  0.00     0.164 C 
BRANCH  18  19
HETATM   19  O2  UNL     1      -1.282  47.990 -19.216  1.00  0.00    -0.401 OA
HETATM   20  H27 UNL     1      -0.692  47.235 -19.049  1.00  0.00     0.209 HD
ENDBRANCH  18  19
ENDBRANCH  17  18
ENDBRANCH  16  17
ENDBRANCH   6  16
BRANCH  12  21
HETATM   21  O4  UNL     1      -6.530  51.211 -23.111  1.00  0.00    -0.389 OA
HETATM   22  H39 UNL     1      -7.484  51.263 -22.930  1.00  0.00     0.210 HD
ENDBRANCH  12  21
BRANCH   1  23
HETATM   23  C6  UNL     1      -2.573  52.066 -25.219  1.00  0.00    -0.074 C 
HETATM   24  C5  UNL     1      -1.364  52.339 -24.675  1.00  0.00     0.003 C 
BRANCH  24  25
HETATM   25  C4  UNL     1      -1.012  52.401 -23.269  1.00  0.00     0.001 C 
HETATM   26  C3  UNL     1       0.210  52.776 -22.850  1.00  0.00     0.006 C 
BRANCH  26  27
HETATM   27  C2  UNL     1       0.664  52.883 -21.462  1.00  0.00    -0.067 C 
HETATM   28  C1  UNL     1       1.376  53.969 -21.110  1.00  0.00     0.019 C 
BRANCH  27  29
HETATM   29  C27 UNL     1       0.300  51.761 -20.499  1.00  0.00     0.041 C 
BRANCH  29  30
HETATM   30  C28 UNL     1      -0.428  52.155 -19.204  1.00  0.00     0.032 C 
BRANCH  30  31
HETATM   31  C29 UNL     1       0.544  52.389 -18.078  1.00  0.00    -0.024 C 
HETATM   32  C30 UNL     1       0.862  51.545 -17.077  1.00  0.00    -0.091 C 
HETATM   33  C31 UNL     1       1.827  51.962 -15.998  1.00  0.00     0.042 C 
HETATM   34  C32 UNL     1       0.326  50.147 -16.923  1.00  0.00     0.042 C 
ENDBRANCH  30  31
ENDBRANCH  29  30
ENDBRANCH  27  29
ENDBRANCH  26  27
ENDBRANCH  24  25
BRANCH  23  35
HETATM   35  C7  UNL     1      -2.776  52.083 -26.736  1.00  0.00     0.030 C 
HETATM   36  C8  UNL     1      -1.836  51.230 -27.584  1.00  0.00     0.010 C 
ENDBRANCH  23  35
ENDBRANCH   1  23
BRANCH   8  37
HETATM   37  C22 UNL     1      -6.388  45.626 -20.901  1.00  0.00     0.265 C 
HETATM   38  O3  UNL     1      -6.218  44.454 -21.224  1.00  0.00    -0.302 OA
ENDBRANCH   8  37
TORSDOF 14
ENDMDL
