MODEL 1
REMARK minimizedAffinity -10.2026491
REMARK  5 active torsions:
REMARK  status: ('A' for Active; 'I' for Inactive)
REMARK    1  A    between atoms: N1_2  and  C2_3 
REMARK    2  A    between atoms: C4_5  and  N4_34 
REMARK    3  A    between atoms: C5_7  and  N2_12 
REMARK    4  A    between atoms: C7_9  and  O2_10 
REMARK    5  A    between atoms: C27_35  and  C28_36 
ROOT
HETATM    1  C2  UNL     1      11.396  -7.751  28.073  1.00  0.00     0.257 C 
HETATM    2  C3  UNL     1      10.251  -8.120  29.025  1.00  0.00     0.092 C 
HETATM    3  C4  UNL     1       9.229  -9.052  28.362  1.00  0.00     0.234 C 
HETATM    4  O1  UNL     1       9.598  -9.513  27.065  1.00  0.00    -0.333 OA
HETATM    5  C5  UNL     1      10.032  -8.526  26.097  1.00  0.00     0.168 C 
HETATM    6  C6  UNL     1      11.039  -9.377  25.288  1.00  0.00     0.074 C 
HETATM    7  C7  UNL     1      10.765  -7.298  26.733  1.00  0.00     0.209 C 
ENDROOT
BRANCH   1   8
HETATM    8  N1  UNL     1      12.273  -6.706  28.647  1.00  0.00     0.086 N 
HETATM    9  C1  UNL     1      12.880  -7.093  29.914  1.00  0.00     0.307 C 
HETATM   10  H4  UNL     1      13.013  -6.473  27.986  1.00  0.00     0.316 HD
ENDBRANCH   1   8
BRANCH   7  11
HETATM   11  O2  UNL     1       9.830  -6.239  27.024  1.00  0.00    -0.384 OA
HETATM   12  C8  UNL     1      10.315  -4.947  26.686  1.00  0.00     0.202 C 
ENDBRANCH   7  11
BRANCH   3  13
HETATM   13  N4  UNL     1       7.843  -8.597  28.369  1.00  0.00    -0.316 N 
HETATM   14  C26 UNL     1       6.821  -9.172  27.629  1.00  0.00     0.048 A 
HETATM   15  C21 UNL     1       5.688  -8.354  27.773  1.00  0.00     0.004 A 
HETATM   16  C25 UNL     1       6.803 -10.334  26.837  1.00  0.00     0.030 A 
HETATM   17  C20 UNL     1       6.047  -7.270  28.632  1.00  0.00     0.022 A 
HETATM   18  C22 UNL     1       4.507  -8.727  27.096  1.00  0.00     0.014 A 
HETATM   19  C19 UNL     1       5.466  -6.125  29.189  1.00  0.00     0.062 A 
HETATM   20  C27 UNL     1       7.370  -7.478  28.985  1.00  0.00     0.077 A 
HETATM   21  C16 UNL     1       6.137  -5.242  30.071  1.00  0.00     0.062 A 
HETATM   22  C18 UNL     1       4.108  -5.609  29.021  1.00  0.00     0.260 A 
HETATM   23  C15 UNL     1       7.461  -5.413  30.501  1.00  0.00     0.022 A 
HETATM   24  C17 UNL     1       5.177  -4.199  30.436  1.00  0.00     0.260 A 
HETATM   25  C14 UNL     1       8.386  -4.810  31.402  1.00  0.00     0.004 A 
HETATM   26  C28 UNL     1       8.112  -6.506  29.961  1.00  0.00     0.078 A 
HETATM   27  C9  UNL     1       9.556  -5.597  31.406  1.00  0.00     0.049 A 
HETATM   28  C13 UNL     1       8.316  -3.695  32.267  1.00  0.00     0.014 A 
HETATM   29  N2  UNL     1       9.395  -6.584  30.437  1.00  0.00    -0.308 N 
HETATM   30  C10 UNL     1      10.604  -5.312  32.304  1.00  0.00     0.030 A 
HETATM   31  C11 UNL     1      10.499  -4.204  33.150  1.00  0.00     0.002 A 
HETATM   32  C12 UNL     1       9.375  -3.396  33.125  1.00  0.00     0.001 A 
HETATM   33  O3  UNL     1       5.360  -3.250  31.170  1.00  0.00    -0.267 OA
HETATM   34  N3  UNL     1       4.020  -4.489  29.784  1.00  0.00    -0.289 N 
HETATM   35  H20 UNL     1       3.189  -3.926  29.852  1.00  0.00     0.172 HD
HETATM   36  O4  UNL     1       3.219  -6.075  28.336  1.00  0.00    -0.267 OA
HETATM   37  C23 UNL     1       4.483  -9.884  26.309  1.00  0.00     0.001 A 
HETATM   38  C24 UNL     1       5.617 -10.675  26.183  1.00  0.00     0.002 A 
ENDBRANCH   3  13
TORSDOF 5
ENDMDL
