MODEL 1
REMARK minimizedAffinity -7.91483068
REMARK CNNscore 0.619646907
REMARK CNNaffinity 7.0086174
REMARK  19 active torsions:
REMARK  status: ('A' for Active; 'I' for Inactive)
REMARK    1  A    between atoms: O1_2  and  C2_3 
REMARK    2  A    between atoms: C2_3  and  C3_4 
REMARK    3  A    between atoms: C2_3  and  C28_36 
REMARK    4  A    between atoms: C3_4  and  C4_5 
REMARK    5  A    between atoms: C4_5  and  C6_7 
REMARK    6  A    between atoms: C6_7  and  O2_8 
REMARK    7  A    between atoms: C6_7  and  C7_9 
REMARK    8  A    between atoms: C8_10  and  C9_11 
REMARK    9  A    between atoms: C10_12  and  C11_13 
REMARK   10  A    between atoms: C11_13  and  N1_14 
REMARK       I    between atoms: N1_14  and  C12_15 
REMARK   11  A    between atoms: C12_15  and  C13_17 
REMARK   12  A    between atoms: C13_17  and  C16_20 
REMARK   13  A    between atoms: C16_20  and  O4_21 
REMARK   14  A    between atoms: C16_20  and  C17_22 
REMARK   15  A    between atoms: C19_24  and  C20_25 
REMARK   16  A    between atoms: C21_26  and  C22_27 
REMARK   17  A    between atoms: C23_28  and  C24_29 
REMARK   18  A    between atoms: C26_31  and  N2_33 
REMARK   19  A    between atoms: C28_36  and  O7_37 
ROOT
HETATM    1  C9  UNL     1     -12.399   7.527  13.786  1.00  0.00    -0.003 C 
HETATM    2  C10 UNL     1     -11.193   6.967  13.954  1.00  0.00    -0.007 C 
ENDROOT
BRANCH   1   3
HETATM    3  C8  UNL     1     -13.395   7.011  12.876  1.00  0.00    -0.002 C 
HETATM    4  C7  UNL     1     -14.642   7.501  12.830  1.00  0.00     0.005 C 
BRANCH   4   5
HETATM    5  C6  UNL     1     -15.727   6.992  11.926  1.00  0.00     0.144 C 
BRANCH   5   6
HETATM    6  C4  UNL     1     -17.021   6.595  12.691  1.00  0.00     0.016 C 
HETATM    7  C5  UNL     1     -17.452   7.760  13.593  1.00  0.00     0.013 C 
BRANCH   6   8
HETATM    8  C3  UNL     1     -16.848   5.307  13.518  1.00  0.00     0.042 C 
BRANCH   8   9
HETATM    9  C2  UNL     1     -17.714   4.047  13.214  1.00  0.00     0.159 C 
BRANCH   9  10
HETATM   10  O1  UNL     1     -19.052   4.579  13.070  1.00  0.00    -0.388 OA
HETATM   11  C1  UNL     1     -20.052   3.863  13.796  1.00  0.00     0.202 C 
ENDBRANCH   9  10
BRANCH   9  12
HETATM   12  C28 UNL     1     -17.814   2.951  14.346  1.00  0.00     0.133 C 
HETATM   13  C29 UNL     1     -16.583   2.945  15.315  1.00  0.00     0.114 C 
HETATM   14  C30 UNL     1     -16.898   2.527  16.751  1.00  0.00     0.023 C 
HETATM   15  C31 UNL     1     -15.632   1.941  14.726  1.00  0.00     0.227 C 
HETATM   16  O8  UNL     1     -14.428   1.915  14.924  1.00  0.00    -0.273 OA
HETATM   17  N3  UNL     1     -16.369   1.053  13.978  1.00  0.00    -0.332 N 
HETATM   18  C32 UNL     1     -15.726   0.042  13.170  1.00  0.00     0.154 C 
HETATM   19  C33 UNL     1     -17.795   1.492  13.772  1.00  0.00     0.183 A 
HETATM   20  C34 UNL     1     -18.359   1.154  12.350  1.00  0.00     0.294 A 
HETATM   21  C35 UNL     1     -18.845   0.395  14.188  1.00  0.00     0.169 A 
HETATM   22  O9  UNL     1     -18.060   1.350  11.190  1.00  0.00    -0.262 OA
HETATM   23  O10 UNL     1     -19.319   0.315  12.813  1.00  0.00    -0.311 OA
HETATM   24  C36 UNL     1     -20.029   0.586  15.117  1.00  0.00     0.043 C 
BRANCH  12  25
HETATM   25  O7  UNL     1     -19.006   3.160  15.120  1.00  0.00    -0.383 OA
HETATM   26  H42 UNL     1     -19.046   4.084  15.413  1.00  0.00     0.210 HD
ENDBRANCH  12  25
ENDBRANCH   9  12
ENDBRANCH   8   9
ENDBRANCH   6   8
ENDBRANCH   5   6
BRANCH   5  27
HETATM   27  O2  UNL     1     -16.004   8.017  10.980  1.00  0.00    -0.391 OA
HETATM   28  H12 UNL     1     -15.179   8.190  10.496  1.00  0.00     0.210 HD
ENDBRANCH   5  27
ENDBRANCH   4   5
ENDBRANCH   1   3
BRANCH   2  29
HETATM   29  C11 UNL     1     -10.177   7.477  14.924  1.00  0.00     0.149 C 
BRANCH  29  30
HETATM   30  N1  UNL     1      -9.117   6.505  15.023  1.00  0.00    -0.357 N 
HETATM   31  C12 UNL     1      -7.802   6.914  14.940  1.00  0.00     0.228 C 
HETATM   32  O3  UNL     1      -7.505   8.107  14.873  1.00  0.00    -0.273 OA
HETATM   33  H19 UNL     1      -9.347   5.534  14.868  1.00  0.00     0.162 HD
BRANCH  31  34
HETATM   34  C13 UNL     1      -6.735   5.790  14.931  1.00  0.00     0.063 C 
HETATM   35  C14 UNL     1      -7.416   4.499  15.426  1.00  0.00     0.028 C 
HETATM   36  C15 UNL     1      -5.605   6.237  15.876  1.00  0.00     0.028 C 
BRANCH  34  37
HETATM   37  C16 UNL     1      -6.224   5.658  13.452  1.00  0.00     0.164 C 
BRANCH  37  38
HETATM   38  O4  UNL     1      -6.950   4.599  12.805  1.00  0.00    -0.390 OA
HETATM   39  H27 UNL     1      -7.842   4.967  12.624  1.00  0.00     0.210 HD
ENDBRANCH  37  38
BRANCH  37  40
HETATM   40  C17 UNL     1      -4.760   5.412  13.067  1.00  0.00    -0.054 C 
HETATM   41  C18 UNL     1      -4.499   3.942  12.788  1.00  0.00     0.046 C 
HETATM   42  C19 UNL     1      -3.798   6.353  12.975  1.00  0.00     0.005 C 
BRANCH  42  43
HETATM   43  C20 UNL     1      -2.398   6.136  12.660  1.00  0.00     0.000 C 
HETATM   44  C21 UNL     1      -1.423   6.978  13.039  1.00  0.00     0.000 C 
BRANCH  44  45
HETATM   45  C22 UNL     1      -0.026   6.740  12.730  1.00  0.00     0.001 C 
HETATM   46  C23 UNL     1       0.710   7.591  11.994  1.00  0.00     0.009 C 
BRANCH  46  47
HETATM   47  C24 UNL     1       2.125   7.432  11.622  1.00  0.00    -0.034 C 
HETATM   48  C25 UNL     1       3.122   7.551  12.760  1.00  0.00     0.050 C 
HETATM   49  C26 UNL     1       2.478   7.171  10.339  1.00  0.00     0.082 C 
HETATM   50  C27 UNL     1       1.673   7.004   9.092  1.00  0.00     0.075 C 
BRANCH  49  51
HETATM   51  N2  UNL     1       3.894   7.046  10.049  1.00  0.00    -0.120 N 
HETATM   52  O5  UNL     1       4.347   5.898   9.974  1.00  0.00    -0.532 OA
HETATM   53  O6  UNL     1       4.528   8.094   9.869  1.00  0.00    -0.532 OA
ENDBRANCH  49  51
ENDBRANCH  46  47
ENDBRANCH  44  45
ENDBRANCH  42  43
ENDBRANCH  37  40
ENDBRANCH  34  37
ENDBRANCH  31  34
ENDBRANCH  29  30
ENDBRANCH   2  29
TORSDOF 19
ENDMDL
