MODEL 1
REMARK minimizedAffinity -7.22506046
REMARK  5 active torsions:
REMARK  status: ('A' for Active; 'I' for Inactive)
REMARK    1  A    between atoms: O1_2  and  C2_3 
REMARK    2  A    between atoms: C3_4  and  O2_5 
REMARK    3  A    between atoms: C4_6  and  C5_7 
REMARK    4  A    between atoms: C5_7  and  O3_8 
REMARK    5  A    between atoms: C6_10  and  N1_11 
ROOT
HETATM    1  C2  UNL     1      -4.795   6.718  15.117  1.00  0.00     0.201 C 
HETATM    2  C3  UNL     1      -3.377   6.307  15.497  1.00  0.00     0.182 C 
HETATM    3  C4  UNL     1      -2.655   6.358  14.156  1.00  0.00     0.179 C 
HETATM    4  O4  UNL     1      -3.588   5.830  13.204  1.00  0.00    -0.353 OA
HETATM    5  C6  UNL     1      -4.896   6.251  13.640  1.00  0.00     0.264 C 
ENDROOT
BRANCH   5   6
HETATM    6  N1  UNL     1      -5.855   5.187  13.338  1.00  0.00    -0.279 N 
HETATM    7  C7  UNL     1      -5.435   4.116  12.568  1.00  0.00     0.110 A 
HETATM    8  C8  UNL     1      -6.219   3.066  12.294  1.00  0.00     0.022 A 
HETATM    9  C9  UNL     1      -5.805   1.891  11.471  1.00  0.00     0.056 C 
HETATM   10  C10 UNL     1      -7.588   3.058  12.857  1.00  0.00     0.256 A 
HETATM   11  O5  UNL     1      -8.378   2.149  12.632  1.00  0.00    -0.267 OA
HETATM   12  N2  UNL     1      -7.911   4.125  13.643  1.00  0.00    -0.275 N 
HETATM   13  C11 UNL     1      -7.108   5.195  13.931  1.00  0.00     0.331 A 
HETATM   14  H16 UNL     1      -8.831   4.125  14.056  1.00  0.00     0.173 HD
HETATM   15  O6  UNL     1      -7.527   6.091  14.658  1.00  0.00    -0.246 OA
ENDBRANCH   5   6
BRANCH   1  16
HETATM   16  O1  UNL     1      -4.874   8.162  15.222  1.00  0.00    -0.384 OA
HETATM   17  C1  UNL     1      -6.220   8.621  15.300  1.00  0.00     0.202 C 
ENDBRANCH   1  16
BRANCH   2  18
HETATM   18  O2  UNL     1      -2.776   7.167  16.463  1.00  0.00    -0.390 OA
HETATM   19  H6  UNL     1      -3.230   8.030  16.361  1.00  0.00     0.210 HD
ENDBRANCH   2  18
BRANCH   3  20
HETATM   20  C5  UNL     1      -1.350   5.566  14.168  1.00  0.00     0.198 C 
BRANCH  20  21
HETATM   21  O3  UNL     1      -0.789   5.497  15.476  1.00  0.00    -0.398 OA
HETATM   22  H10 UNL     1      -1.515   5.283  16.098  1.00  0.00     0.209 HD
ENDBRANCH  20  21
ENDBRANCH   3  20
TORSDOF 5
ENDMDL
