MODEL 1
REMARK minimizedAffinity -10.5745802
REMARK  6 active torsions:
REMARK  status: ('A' for Active; 'I' for Inactive)
REMARK    1  A    between atoms: C12_13  and  C13_14 
REMARK    2  A    between atoms: C13_14  and  C15_16 
REMARK    3  A    between atoms: C15_16  and  C16_17 
REMARK    4  A    between atoms: C16_17  and  C17_18 
REMARK    5  A    between atoms: C18_19  and  C20_21 
REMARK    6  A    between atoms: C20_21  and  O3_23 
ROOT
HETATM    1  C1  UNL     1      -7.628   4.598  13.953  1.00  0.00     0.052 C 
HETATM    2  C2  UNL     1      -6.514   4.066  13.092  1.00  0.00    -0.013 C 
HETATM    3  C3  UNL     1      -5.355   4.691  12.771  1.00  0.00    -0.066 C 
HETATM    4  C4  UNL     1      -5.041   6.099  13.238  1.00  0.00     0.036 C 
HETATM    5  C5  UNL     1      -3.648   6.205  13.846  1.00  0.00     0.010 C 
HETATM    6  C6  UNL     1      -2.595   5.803  12.809  1.00  0.00     0.007 C 
HETATM    7  C7  UNL     1      -2.816   4.327  12.375  1.00  0.00     0.068 C 
HETATM    8  C8  UNL     1      -1.743   3.957  11.332  1.00  0.00     0.133 C 
HETATM    9  O1  UNL     1      -2.018   3.429  10.254  1.00  0.00    -0.298 OA
HETATM   10  C9  UNL     1      -0.285   4.252  11.686  1.00  0.00     0.089 C 
HETATM   11  C10 UNL     1      -0.148   5.736  12.050  1.00  0.00    -0.026 C 
HETATM   12  C11 UNL     1      -0.458   6.569  10.764  1.00  0.00     0.016 C 
HETATM   13  C12 UNL     1       1.214   6.222  12.640  1.00  0.00    -0.002 C 
HETATM   14  C21 UNL     1       0.793   7.511  13.418  1.00  0.00     0.006 C 
HETATM   15  C22 UNL     1      -0.737   7.470  13.611  1.00  0.00     0.011 C 
HETATM   16  C23 UNL     1      -1.124   6.027  13.264  1.00  0.00    -0.032 C 
HETATM   17  C24 UNL     1      -0.829   5.179  14.546  1.00  0.00     0.016 C 
HETATM   18  C25 UNL     1      -4.271   4.061  11.873  1.00  0.00     0.027 C 
HETATM   19  C26 UNL     1      -4.490   2.538  11.738  1.00  0.00     0.018 C 
HETATM   20  C27 UNL     1      -5.929   2.205  11.409  1.00  0.00     0.084 C 
HETATM   21  C28 UNL     1      -6.821   2.716  12.505  1.00  0.00     0.155 C 
HETATM   22  O4  UNL     1      -7.808   2.081  12.870  1.00  0.00    -0.293 OA
ENDROOT
BRANCH  13  23
HETATM   23  C13 UNL     1       2.433   6.487  11.703  1.00  0.00    -0.014 C 
HETATM   24  C14 UNL     1       2.587   7.972  11.359  1.00  0.00     0.010 C 
BRANCH  23  25
HETATM   25  C15 UNL     1       2.290   5.659  10.393  1.00  0.00     0.008 C 
BRANCH  25  26
HETATM   26  C16 UNL     1       2.538   6.419   9.083  1.00  0.00     0.028 C 
BRANCH  26  27
HETATM   27  C17 UNL     1       2.989   5.527   7.960  1.00  0.00    -0.013 C 
HETATM   28  C18 UNL     1       3.666   4.367   8.067  1.00  0.00     0.008 C 
HETATM   29  C19 UNL     1       4.146   3.748   9.345  1.00  0.00     0.055 C 
BRANCH  28  30
HETATM   30  C20 UNL     1       3.980   3.661   6.797  1.00  0.00     0.171 C 
HETATM   31  O2  UNL     1       3.637   3.991   5.676  1.00  0.00    -0.646 OA
BRANCH  30  32
HETATM   32  O3  UNL     1       4.718   2.557   6.995  1.00  0.00    -0.773 OA
HETATM   33  H28 UNL     1       4.839   2.200   6.090  1.00  0.00     0.167 HD
ENDBRANCH  30  32
ENDBRANCH  28  30
ENDBRANCH  26  27
ENDBRANCH  25  26
ENDBRANCH  23  25
ENDBRANCH  13  23
TORSDOF 6
ENDMDL
