MODEL 1
REMARK minimizedAffinity -9.257617
REMARK CNNscore 0.385754049
REMARK CNNaffinity 7.73291397
REMARK  14 active torsions:
REMARK  status: ('A' for Active; 'I' for Inactive)
REMARK    1  A    between atoms: C2_2  and  O2_4 
REMARK    2  A    between atoms: O2_4  and  C3_5 
REMARK    3  A    between atoms: C3_5  and  C4_6 
REMARK    4  A    between atoms: C4_6  and  C5_8 
REMARK    5  A    between atoms: C5_8  and  O4_9 
REMARK    6  A    between atoms: O4_9  and  C6_10 
REMARK    7  A    between atoms: C6_10  and  C7_12 
REMARK    8  A    between atoms: C7_12  and  C8_13 
REMARK    9  A    between atoms: C8_13  and  C9_14 
REMARK       I    between atoms: C9_14  and  N1_16 
REMARK   10  A    between atoms: N1_16  and  C10_17 
REMARK   11  A    between atoms: C10_17  and  C11_18 
REMARK   12  A    between atoms: C10_17  and  C18_25 
REMARK   13  A    between atoms: C11_18  and  C12_19 
REMARK   14  A    between atoms: C18_25  and  O8_27 
ROOT
HETATM    1  C3  UNL     1      -1.916  50.153 -19.413  1.00  0.00     0.140 C 
HETATM    2  C19 UNL     1      -1.812  51.677 -19.751  1.00  0.00     0.048 C 
HETATM    3  C20 UNL     1      -0.842  52.307 -18.730  1.00  0.00     0.009 C 
HETATM    4  C21 UNL     1      -0.317  51.128 -17.917  1.00  0.00     0.002 C 
HETATM    5  C22 UNL     1       0.291  51.390 -16.530  1.00  0.00    -0.004 C 
HETATM    6  C23 UNL     1       1.410  52.451 -16.519  1.00  0.00     0.010 C 
HETATM    7  C24 UNL     1       2.788  51.909 -16.152  1.00  0.00     0.035 C 
HETATM    8  C25 UNL     1       2.807  51.022 -14.925  1.00  0.00    -0.068 C 
HETATM    9  C26 UNL     1       3.954  50.884 -14.234  1.00  0.00     0.053 C 
HETATM   10  C27 UNL     1       4.088  49.917 -13.120  1.00  0.00     0.149 C 
HETATM   11  O9  UNL     1       5.120  49.912 -12.453  1.00  0.00    -0.293 OA
HETATM   12  C28 UNL     1       2.943  48.976 -12.829  1.00  0.00     0.084 C 
HETATM   13  C29 UNL     1       1.976  48.852 -14.004  1.00  0.00     0.022 C 
HETATM   14  C30 UNL     1       1.544  50.219 -14.599  1.00  0.00    -0.016 C 
HETATM   15  C31 UNL     1       0.704  50.981 -13.548  1.00  0.00     0.020 C 
HETATM   16  C32 UNL     1       0.757  50.022 -15.937  1.00  0.00     0.002 C 
HETATM   17  C33 UNL     1      -0.420  49.020 -15.882  1.00  0.00     0.007 C 
HETATM   18  C34 UNL     1      -1.064  48.828 -17.271  1.00  0.00     0.013 C 
HETATM   19  C35 UNL     1      -1.537  50.160 -17.882  1.00  0.00    -0.001 C 
HETATM   20  C36 UNL     1      -2.706  50.716 -17.009  1.00  0.00     0.019 C 
ENDROOT
BRANCH   1  21
HETATM   21  O2  UNL     1      -0.852  49.548 -20.196  1.00  0.00    -0.301 OA
BRANCH  21  22
HETATM   22  C2  UNL     1      -1.094  49.115 -21.460  1.00  0.00     0.256 C 
HETATM   23  C1  UNL     1      -1.336  47.639 -21.452  1.00  0.00     0.126 C 
HETATM   24  O1  UNL     1      -1.114  49.808 -22.464  1.00  0.00    -0.266 OA
ENDBRANCH  21  22
ENDBRANCH   1  21
BRANCH   1  25
HETATM   25  C4  UNL     1      -3.342  49.644 -19.774  1.00  0.00     0.186 C 
HETATM   26  O3  UNL     1      -3.844  48.644 -19.250  1.00  0.00    -0.292 OA
BRANCH  25  27
HETATM   27  C5  UNL     1      -4.172  50.466 -20.759  1.00  0.00     0.260 C 
BRANCH  27  28
HETATM   28  O4  UNL     1      -4.282  49.862 -22.044  1.00  0.00    -0.314 OA
BRANCH  28  29
HETATM   29  C6  UNL     1      -5.562  49.631 -22.449  1.00  0.00     0.259 C 
HETATM   30  O5  UNL     1      -6.528  50.325 -22.163  1.00  0.00    -0.265 OA
BRANCH  29  31
HETATM   31  C7  UNL     1      -5.609  48.366 -23.271  1.00  0.00     0.120 C 
BRANCH  31  32
HETATM   32  C8  UNL     1      -5.236  48.642 -24.721  1.00  0.00     0.112 C 
BRANCH  32  33
HETATM   33  C9  UNL     1      -3.784  49.052 -24.858  1.00  0.00     0.218 C 
HETATM   34  O6  UNL     1      -2.847  48.328 -24.538  1.00  0.00    -0.274 OA
HETATM   35  N1  UNL     1      -3.622  50.289 -25.425  1.00  0.00    -0.346 N 
HETATM   36  H10 UNL     1      -4.422  50.902 -25.552  1.00  0.00     0.163 HD
BRANCH  35  37
HETATM   37  C10 UNL     1      -2.307  50.909 -25.601  1.00  0.00     0.186 C 
BRANCH  37  38
HETATM   38  C11 UNL     1      -1.696  50.641 -26.986  1.00  0.00     0.074 C 
BRANCH  38  39
HETATM   39  C12 UNL     1      -0.234  51.017 -27.109  1.00  0.00    -0.056 A 
HETATM   40  C13 UNL     1       0.245  51.638 -28.270  1.00  0.00     0.007 A 
HETATM   41  C14 UNL     1       1.586  52.007 -28.375  1.00  0.00     0.001 A 
HETATM   42  C15 UNL     1       2.462  51.758 -27.320  1.00  0.00     0.000 A 
HETATM   43  C16 UNL     1       1.999  51.136 -26.162  1.00  0.00     0.001 A 
HETATM   44  C17 UNL     1       0.657  50.765 -26.056  1.00  0.00     0.007 A 
ENDBRANCH  38  39
ENDBRANCH  37  38
BRANCH  37  45
HETATM   45  C18 UNL     1      -2.376  52.414 -25.322  1.00  0.00     0.163 C 
HETATM   46  O7  UNL     1      -1.671  53.043 -24.549  1.00  0.00    -0.648 OA
BRANCH  45  47
HETATM   47  O8  UNL     1      -3.336  53.054 -26.034  1.00  0.00    -0.775 OA
HETATM   48  H19 UNL     1      -3.251  53.988 -25.749  1.00  0.00     0.167 HD
ENDBRANCH  45  47
ENDBRANCH  37  45
ENDBRANCH  35  37
ENDBRANCH  32  33
ENDBRANCH  31  32
ENDBRANCH  29  31
ENDBRANCH  28  29
ENDBRANCH  27  28
ENDBRANCH  25  27
ENDBRANCH   1  25
TORSDOF 14
ENDMDL
