MODEL 1
REMARK minimizedAffinity -9.81335163
REMARK  7 active torsions:
REMARK  status: ('A' for Active; 'I' for Inactive)
REMARK    1  A    between atoms: C2_2  and  C30_33 
REMARK    2  A    between atoms: C3_3  and  C4_4 
REMARK    3  A    between atoms: C4_4  and  C5_5 
REMARK    4  A    between atoms: C5_5  and  C6_6 
REMARK    5  A    between atoms: C6_6  and  C8_8 
REMARK    6  A    between atoms: C10_10  and  O1_11 
REMARK    7  A    between atoms: C30_33  and  O5_35 
ROOT
HETATM    1  C8  UNL     1      -1.744   7.146  13.195  1.00  0.00     0.001 C 
HETATM    2  C9  UNL     1      -1.404   7.161  14.707  1.00  0.00     0.038 C 
HETATM    3  C10 UNL     1       0.130   7.344  14.811  1.00  0.00     0.131 C 
HETATM    4  C11 UNL     1       0.579   7.789  13.388  1.00  0.00     0.014 C 
HETATM    5  C12 UNL     1       0.357   9.330  13.259  1.00  0.00     0.023 C 
HETATM    6  C13 UNL     1       2.017   7.564  12.930  1.00  0.00    -0.058 C 
HETATM    7  C14 UNL     1       2.337   7.418  11.619  1.00  0.00    -0.000 C 
HETATM    8  C15 UNL     1       1.191   7.410  10.600  1.00  0.00     0.157 C 
HETATM    9  O2  UNL     1       1.416   7.450   9.390  1.00  0.00    -0.293 OA
HETATM   10  C16 UNL     1      -0.261   7.349  11.067  1.00  0.00     0.094 C 
HETATM   11  C17 UNL     1      -0.365   6.891  12.518  1.00  0.00    -0.019 C 
HETATM   12  C18 UNL     1      -0.008   5.373  12.564  1.00  0.00     0.017 C 
HETATM   13  C19 UNL     1       3.780   7.170  11.101  1.00  0.00    -0.008 C 
HETATM   14  C20 UNL     1       3.736   5.768  10.424  1.00  0.00     0.021 C 
HETATM   15  C21 UNL     1       4.192   8.240  10.043  1.00  0.00     0.022 C 
HETATM   16  C22 UNL     1       5.018   9.389  10.595  1.00  0.00     0.080 C 
HETATM   17  C23 UNL     1       6.320   8.896  11.178  1.00  0.00     0.135 C 
HETATM   18  O3  UNL     1       7.326   9.607  11.141  1.00  0.00    -0.297 OA
HETATM   19  C24 UNL     1       6.335   7.504  11.820  1.00  0.00     0.018 C 
HETATM   20  C25 UNL     1       6.952   6.530  10.800  1.00  0.00     0.023 C 
HETATM   21  C26 UNL     1       7.302   7.534  13.029  1.00  0.00     0.023 C 
HETATM   22  C27 UNL     1       4.872   7.101  12.262  1.00  0.00     0.014 C 
HETATM   23  C28 UNL     1       4.441   7.908  13.508  1.00  0.00     0.011 C 
HETATM   24  C29 UNL     1       3.056   7.547  14.008  1.00  0.00     0.036 C 
ENDROOT
BRANCH   1  25
HETATM   25  C6  UNL     1      -2.962   6.281  12.753  1.00  0.00    -0.013 C 
HETATM   26  C7  UNL     1      -4.259   7.049  13.070  1.00  0.00     0.010 C 
BRANCH  25  27
HETATM   27  C5  UNL     1      -3.040   4.871  13.381  1.00  0.00     0.008 C 
BRANCH  27  28
HETATM   28  C4  UNL     1      -3.733   3.845  12.475  1.00  0.00     0.028 C 
BRANCH  28  29
HETATM   29  C3  UNL     1      -5.213   3.807  12.741  1.00  0.00    -0.013 C 
HETATM   30  C2  UNL     1      -6.109   2.929  12.249  1.00  0.00     0.008 C 
HETATM   31  C1  UNL     1      -5.813   1.821  11.282  1.00  0.00     0.055 C 
BRANCH  30  32
HETATM   32  C30 UNL     1      -7.517   3.101  12.694  1.00  0.00     0.171 C 
HETATM   33  O4  UNL     1      -8.024   4.117  13.134  1.00  0.00    -0.646 OA
BRANCH  32  34
HETATM   34  O5  UNL     1      -8.235   1.973  12.566  1.00  0.00    -0.773 OA
HETATM   35  H44 UNL     1      -9.121   2.228  12.895  1.00  0.00     0.167 HD
ENDBRANCH  32  34
ENDBRANCH  30  32
ENDBRANCH  28  29
ENDBRANCH  27  28
ENDBRANCH  25  27
ENDBRANCH   1  25
BRANCH   3  36
HETATM   36  O1  UNL     1       0.444   8.286  15.827  1.00  0.00    -0.394 OA
HETATM   37  H17 UNL     1       0.052   7.964  16.657  1.00  0.00     0.210 HD
ENDBRANCH   3  36
TORSDOF 7
ENDMDL
