MODEL 1
REMARK minimizedAffinity -8.67043114
REMARK CNNscore 0.686587632
REMARK CNNaffinity 7.50434542
REMARK  6 active torsions:
REMARK  status: ('A' for Active; 'I' for Inactive)
REMARK    1  A    between atoms: C2_2  and  C30_32 
REMARK    2  A    between atoms: C3_3  and  C4_4 
REMARK    3  A    between atoms: C4_4  and  C5_5 
REMARK    4  A    between atoms: C5_5  and  C6_6 
REMARK    5  A    between atoms: C6_6  and  C8_8 
REMARK    6  A    between atoms: C30_32  and  O3_33 
ROOT
HETATM    1  C8  UNL     1      -4.002   6.918  14.681  1.00  0.00    -0.002 C 
HETATM    2  C9  UNL     1      -4.326   5.509  14.115  1.00  0.00     0.007 C 
HETATM    3  C10 UNL     1      -3.144   5.106  13.214  1.00  0.00     0.015 C 
HETATM    4  C11 UNL     1      -2.016   6.103  13.549  1.00  0.00    -0.005 C 
HETATM    5  C12 UNL     1      -1.300   5.571  14.829  1.00  0.00     0.021 C 
HETATM    6  C13 UNL     1      -0.888   6.351  12.559  1.00  0.00    -0.000 C 
HETATM    7  C14 UNL     1      -0.251   7.550  12.499  1.00  0.00    -0.060 C 
HETATM    8  C15 UNL     1      -0.703   8.718  13.394  1.00  0.00     0.036 C 
HETATM    9  C16 UNL     1      -1.928   8.493  14.307  1.00  0.00     0.015 C 
HETATM   10  C17 UNL     1      -2.868   7.424  13.741  1.00  0.00    -0.028 C 
HETATM   11  C18 UNL     1      -3.471   7.963  12.411  1.00  0.00     0.016 C 
HETATM   12  C19 UNL     1       0.928   7.843  11.528  1.00  0.00    -0.014 C 
HETATM   13  C20 UNL     1       0.355   8.683  10.365  1.00  0.00     0.020 C 
HETATM   14  C21 UNL     1       2.042   8.639  12.256  1.00  0.00     0.021 C 
HETATM   15  C22 UNL     1       3.399   8.699  11.560  1.00  0.00     0.080 C 
HETATM   16  C23 UNL     1       3.450   8.038  10.204  1.00  0.00     0.135 C 
HETATM   17  O1  UNL     1       4.112   8.552   9.301  1.00  0.00    -0.297 OA
HETATM   18  C24 UNL     1       2.771   6.672  10.039  1.00  0.00     0.018 C 
HETATM   19  C25 UNL     1       3.848   5.609  10.334  1.00  0.00     0.023 C 
HETATM   20  C26 UNL     1       2.351   6.510   8.562  1.00  0.00     0.023 C 
HETATM   21  C27 UNL     1       1.583   6.508  11.049  1.00  0.00     0.020 C 
HETATM   22  C28 UNL     1       0.521   5.517  10.572  1.00  0.00     0.090 C 
HETATM   23  C29 UNL     1      -0.462   5.224  11.674  1.00  0.00     0.157 C 
HETATM   24  O2  UNL     1      -0.915   4.090  11.812  1.00  0.00    -0.293 OA
ENDROOT
BRANCH   1  25
HETATM   25  C6  UNL     1      -5.266   7.762  15.033  1.00  0.00    -0.014 C 
HETATM   26  C7  UNL     1      -5.014   9.149  15.636  1.00  0.00     0.010 C 
BRANCH  25  27
HETATM   27  C5  UNL     1      -6.268   6.946  15.886  1.00  0.00     0.008 C 
BRANCH  27  28
HETATM   28  C4  UNL     1      -7.483   6.398  15.117  1.00  0.00     0.028 C 
BRANCH  28  29
HETATM   29  C3  UNL     1      -7.378   4.942  14.758  1.00  0.00    -0.022 C 
HETATM   30  C2  UNL     1      -7.604   4.353  13.563  1.00  0.00    -0.064 C 
HETATM   31  C1  UNL     1      -8.041   5.085  12.320  1.00  0.00     0.045 C 
BRANCH  30  32
HETATM   32  C30 UNL     1      -7.474   2.861  13.338  1.00  0.00     0.197 C 
BRANCH  32  33
HETATM   33  O3  UNL     1      -8.517   2.340  12.526  1.00  0.00    -0.397 OA
HETATM   34  H46 UNL     1      -9.344   2.502  13.012  1.00  0.00     0.209 HD
ENDBRANCH  32  33
ENDBRANCH  30  32
ENDBRANCH  28  29
ENDBRANCH  27  28
ENDBRANCH  25  27
ENDBRANCH   1  25
TORSDOF 6
ENDMDL
