MODEL 1
REMARK minimizedAffinity -8.16115284
REMARK CNNscore 0.745539188
REMARK CNNaffinity 6.29541922
REMARK  9 active torsions:
REMARK  status: ('A' for Active; 'I' for Inactive)
REMARK    1  A    between atoms: C3_4  and  O2_5 
REMARK    2  A    between atoms: O2_5  and  C4_6 
REMARK    3  A    between atoms: C11_13  and  O3_14 
REMARK    4  A    between atoms: C15_18  and  C16_19 
REMARK    5  A    between atoms: C23_28  and  O6_29 
REMARK    6  A    between atoms: C24_30  and  C25_31 
REMARK    7  A    between atoms: C28_35  and  O8_36 
REMARK    8  A    between atoms: C29_37  and  O9_38 
REMARK    9  A    between atoms: C30_39  and  O10_40 
ROOT
HETATM    1  C4  UNL     1      -3.062  52.089 -11.737  1.00  0.00     0.148 C 
HETATM    2  C5  UNL     1      -1.712  51.462 -11.549  1.00  0.00     0.009 C 
HETATM    3  C6  UNL     1      -0.793  51.860 -10.646  1.00  0.00    -0.065 C 
HETATM    4  C7  UNL     1       0.511  51.109 -10.532  1.00  0.00     0.036 C 
HETATM    5  C8  UNL     1       1.702  52.052 -10.561  1.00  0.00     0.012 C 
HETATM    6  C9  UNL     1       1.589  53.141  -9.474  1.00  0.00     0.029 C 
HETATM    7  C10 UNL     1       0.296  53.977  -9.691  1.00  0.00     0.041 C 
HETATM    8  C11 UNL     1       0.240  55.148  -8.679  1.00  0.00     0.125 C 
HETATM    9  C12 UNL     1       1.518  55.986  -8.683  1.00  0.00     0.045 C 
HETATM   10  C13 UNL     1       2.820  55.185  -8.418  1.00  0.00    -0.003 C 
HETATM   11  C14 UNL     1       2.846  54.779  -6.933  1.00  0.00     0.019 C 
HETATM   12  C15 UNL     1       4.035  56.094  -8.850  1.00  0.00     0.032 C 
HETATM   13  C21 UNL     1       4.371  55.674 -10.301  1.00  0.00     0.013 C 
HETATM   14  C22 UNL     1       3.335  54.624 -10.708  1.00  0.00     0.040 C 
HETATM   15  C23 UNL     1       2.893  53.977  -9.388  1.00  0.00     0.070 C 
HETATM   16  C24 UNL     1      -1.000  53.066  -9.712  1.00  0.00     0.043 C 
HETATM   17  C26 UNL     1      -2.252  53.878 -10.155  1.00  0.00     0.025 C 
HETATM   18  C27 UNL     1      -3.426  52.992 -10.563  1.00  0.00     0.037 C 
ENDROOT
BRANCH   1  19
HETATM   19  O2  UNL     1      -4.006  51.018 -11.809  1.00  0.00    -0.349 OA
BRANCH  19  20
HETATM   20  C3  UNL     1      -3.749  49.984 -10.868  1.00  0.00     0.292 C 
HETATM   21  O1  UNL     1      -3.787  48.679 -11.460  1.00  0.00    -0.351 OA
HETATM   22  C2  UNL     1      -5.074  48.336 -12.002  1.00  0.00     0.152 C 
HETATM   23  C1  UNL     1      -4.938  46.965 -12.656  1.00  0.00     0.042 C 
HETATM   24  C30 UNL     1      -6.156  48.337 -10.915  1.00  0.00     0.178 C 
HETATM   25  C29 UNL     1      -6.162  49.686 -10.189  1.00  0.00     0.183 C 
HETATM   26  C28 UNL     1      -4.759  50.055  -9.705  1.00  0.00     0.204 C 
BRANCH  24  27
HETATM   27  O10 UNL     1      -7.450  48.093 -11.473  1.00  0.00    -0.390 OA
HETATM   28  H40 UNL     1      -8.087  48.339 -10.774  1.00  0.00     0.210 HD
ENDBRANCH  24  27
BRANCH  25  29
HETATM   29  O9  UNL     1      -7.067  49.594  -9.073  1.00  0.00    -0.390 OA
HETATM   30  H38 UNL     1      -6.521  49.296  -8.315  1.00  0.00     0.210 HD
ENDBRANCH  25  29
BRANCH  26  31
HETATM   31  O8  UNL     1      -4.397  49.145  -8.643  1.00  0.00    -0.388 OA
HETATM   32  H36 UNL     1      -3.918  48.397  -9.053  1.00  0.00     0.210 HD
ENDBRANCH  26  31
ENDBRANCH  19  20
ENDBRANCH   1  19
BRANCH  16  33
HETATM   33  C25 UNL     1      -1.270  52.503  -8.304  1.00  0.00     0.245 C 
HETATM   34  O7  UNL     1      -1.879  51.460  -8.074  1.00  0.00    -0.306 OA
ENDBRANCH  16  33
BRANCH   8  35
HETATM   35  O3  UNL     1      -0.809  56.043  -9.031  1.00  0.00    -0.395 OA
HETATM   36  H15 UNL     1      -1.106  56.481  -8.212  1.00  0.00     0.210 HD
ENDBRANCH   8  35
BRANCH  15  37
HETATM   37  O6  UNL     1       3.951  53.091  -8.999  1.00  0.00    -0.389 OA
HETATM   38  H29 UNL     1       3.683  52.619  -8.192  1.00  0.00     0.210 HD
ENDBRANCH  15  37
BRANCH  12  39
HETATM   39  C16 UNL     1       5.247  56.168  -7.933  1.00  0.00    -0.030 A 
HETATM   40  C17 UNL     1       6.294  55.345  -8.091  1.00  0.00     0.153 A 
HETATM   41  O4  UNL     1       7.445  55.365  -7.290  1.00  0.00    -0.287 OA
HETATM   42  C18 UNL     1       7.547  56.268  -6.266  1.00  0.00     0.287 A 
HETATM   43  O5  UNL     1       8.534  56.339  -5.544  1.00  0.00    -0.260 OA
HETATM   44  C19 UNL     1       6.403  57.173  -6.057  1.00  0.00     0.083 A 
HETATM   45  C20 UNL     1       5.324  57.117  -6.846  1.00  0.00     0.015 A 
ENDBRANCH  12  39
TORSDOF 9
ENDMDL
