MODEL 1
REMARK minimizedAffinity -7.27148867
REMARK CNNscore 0.549922228
REMARK CNNaffinity 6.46212626
REMARK  7 active torsions:
REMARK  status: ('A' for Active; 'I' for Inactive)
REMARK    1  A    between atoms: C2_2  and  C4_4 
REMARK    2  A    between atoms: C7_7  and  O1_9 
REMARK    3  A    between atoms: C9_10  and  C10_11 
REMARK    4  A    between atoms: C11_12  and  C12_13 
REMARK    5  A    between atoms: C14_15  and  C15_16 
REMARK    6  A    between atoms: C24_26  and  C26_28 
REMARK    7  A    between atoms: C29_32  and  O4_34 
ROOT
HETATM    1  C15 UNL     1     -15.396   7.656  12.472  1.00  0.00     0.149 C 
HETATM    2  C16 UNL     1     -16.190   8.420  13.538  1.00  0.00     0.054 C 
HETATM    3  C17 UNL     1     -16.935   9.556  12.790  1.00  0.00     0.050 C 
HETATM    4  C18 UNL     1     -16.994   8.909  11.382  1.00  0.00     0.272 C 
HETATM    5  O2  UNL     1     -18.003   7.912  11.232  1.00  0.00    -0.360 OA
HETATM    6  C19 UNL     1     -19.256   8.425  10.822  1.00  0.00     0.171 C 
HETATM    7  C20 UNL     1     -20.143   8.717  12.019  1.00  0.00     0.027 C 
HETATM    8  C21 UNL     1     -19.414   8.792  13.358  1.00  0.00     0.012 C 
HETATM    9  C22 UNL     1     -18.316   9.872  13.487  1.00  0.00     0.032 C 
HETATM   10  C23 UNL     1     -18.870  11.282  13.183  1.00  0.00    -0.066 C 
HETATM   11  C24 UNL     1     -19.725  11.968  13.984  1.00  0.00    -0.021 C 
HETATM   12  C25 UNL     1     -20.283  13.328  13.668  1.00  0.00     0.052 C 
HETATM   13  C27 UNL     1     -18.330  11.887  11.910  1.00  0.00     0.038 C 
HETATM   14  C28 UNL     1     -16.807  11.981  11.913  1.00  0.00     0.042 C 
HETATM   15  C29 UNL     1     -16.088  10.900  12.757  1.00  0.00     0.067 C 
HETATM   16  C30 UNL     1     -15.771  11.470  14.159  1.00  0.00     0.047 C 
HETATM   17  O5  UNL     1     -15.745   8.225  11.209  1.00  0.00    -0.351 OA
ENDROOT
BRANCH   1  18
HETATM   18  C14 UNL     1     -13.905   7.734  12.643  1.00  0.00     0.011 C 
HETATM   19  C12 UNL     1     -13.117   6.990  13.449  1.00  0.00    -0.064 C 
HETATM   20  C13 UNL     1     -13.635   5.869  14.314  1.00  0.00     0.048 C 
BRANCH  19  21
HETATM   21  C11 UNL     1     -11.680   7.259  13.456  1.00  0.00     0.003 C 
HETATM   22  C10 UNL     1     -10.811   6.932  14.427  1.00  0.00    -0.018 C 
BRANCH  22  23
HETATM   23  C9  UNL     1      -9.315   7.183  14.431  1.00  0.00     0.050 C 
HETATM   24  C4  UNL     1      -8.358   5.951  14.503  1.00  0.00     0.024 C 
HETATM   25  C5  UNL     1      -7.077   6.562  15.096  1.00  0.00     0.013 C 
HETATM   26  C6  UNL     1      -7.601   7.473  16.194  1.00  0.00     0.039 C 
HETATM   27  C7  UNL     1      -8.827   8.152  15.566  1.00  0.00     0.062 C 
HETATM   28  C8  UNL     1      -9.843   8.517  16.649  1.00  0.00     0.046 C 
BRANCH  24  29
HETATM   29  C2  UNL     1      -8.172   5.195  13.187  1.00  0.00    -0.088 C 
HETATM   30  C1  UNL     1      -8.597   5.632  11.987  1.00  0.00     0.014 C 
HETATM   31  C3  UNL     1      -7.411   3.894  13.264  1.00  0.00     0.043 C 
ENDBRANCH  24  29
BRANCH  27  32
HETATM   32  O1  UNL     1      -8.415   9.394  14.973  1.00  0.00    -0.390 OA
HETATM   33  H14 UNL     1      -7.700   9.212  14.341  1.00  0.00     0.210 HD
ENDBRANCH  27  32
ENDBRANCH  22  23
ENDBRANCH  19  21
ENDBRANCH   1  18
BRANCH  15  34
HETATM   34  O4  UNL     1     -14.809  10.697  12.150  1.00  0.00    -0.389 OA
HETATM   35  H44 UNL     1     -14.352  11.553  12.078  1.00  0.00     0.210 HD
ENDBRANCH  15  34
BRANCH  11  36
HETATM   36  C26 UNL     1     -20.218  11.427  15.289  1.00  0.00     0.265 C 
HETATM   37  O3  UNL     1     -21.020  12.003  16.010  1.00  0.00    -0.302 OA
ENDBRANCH  11  36
TORSDOF 7
ENDMDL
