MODEL 1
REMARK minimizedAffinity -8.23335457
REMARK CNNscore 0.613106608
REMARK CNNaffinity 6.95325613
REMARK  12 active torsions:
REMARK  status: ('A' for Active; 'I' for Inactive)
REMARK    1  A    between atoms: C12_13  and  O2_14 
REMARK    2  A    between atoms: C19_21  and  O3_22 
REMARK    3  A    between atoms: C19_21  and  C20_23 
REMARK    4  A    between atoms: C20_23  and  C21_25 
REMARK    5  A    between atoms: C21_25  and  O5_26 
REMARK    6  A    between atoms: O5_26  and  C22_27 
REMARK    7  A    between atoms: C22_27  and  C23_29 
REMARK    8  A    between atoms: C23_29  and  C24_30 
REMARK    9  A    between atoms: C24_30  and  C25_31 
REMARK       I    between atoms: C25_31  and  N1_33 
REMARK   10  A    between atoms: N1_33  and  C26_34 
REMARK   11  A    between atoms: C26_34  and  C27_35 
REMARK   12  A    between atoms: C27_35  and  C28_36 
ROOT
HETATM    1  C1  UNL     1       2.359  57.875  -6.339  1.00  0.00     0.020 C 
HETATM    2  C2  UNL     1       3.210  56.590  -6.514  1.00  0.00    -0.014 C 
HETATM    3  C3  UNL     1       3.677  56.205  -5.081  1.00  0.00     0.022 C 
HETATM    4  C4  UNL     1       4.860  55.253  -5.057  1.00  0.00     0.084 C 
HETATM    5  C5  UNL     1       6.011  55.853  -5.821  1.00  0.00     0.149 C 
HETATM    6  O1  UNL     1       7.181  55.650  -5.513  1.00  0.00    -0.293 OA
HETATM    7  C6  UNL     1       5.699  56.615  -7.054  1.00  0.00     0.053 C 
HETATM    8  C7  UNL     1       4.429  56.896  -7.396  1.00  0.00    -0.068 C 
HETATM    9  C8  UNL     1       4.107  57.398  -8.780  1.00  0.00     0.035 C 
HETATM   10  C9  UNL     1       3.301  56.328  -9.518  1.00  0.00     0.010 C 
HETATM   11  C10 UNL     1       2.068  55.837  -8.727  1.00  0.00    -0.002 C 
HETATM   12  C11 UNL     1       2.448  55.429  -7.257  1.00  0.00     0.031 C 
HETATM   13  C12 UNL     1       1.249  54.802  -6.493  1.00  0.00     0.124 C 
HETATM   14  C13 UNL     1       0.518  53.704  -7.295  1.00  0.00     0.045 C 
HETATM   15  C14 UNL     1       0.123  54.137  -8.726  1.00  0.00     0.001 C 
HETATM   16  C15 UNL     1      -0.994  55.217  -8.683  1.00  0.00     0.019 C 
HETATM   17  C16 UNL     1       1.418  54.629  -9.417  1.00  0.00     0.002 C 
HETATM   18  C17 UNL     1       1.020  54.760 -10.880  1.00  0.00     0.009 C 
HETATM   19  C18 UNL     1       0.014  53.616 -11.109  1.00  0.00     0.047 C 
HETATM   20  C19 UNL     1      -0.291  52.995  -9.713  1.00  0.00     0.128 C 
ENDROOT
BRANCH  20  21
HETATM   21  O3  UNL     1       0.594  51.874  -9.593  1.00  0.00    -0.381 OA
HETATM   22  H27 UNL     1       0.308  51.348  -8.824  1.00  0.00     0.211 HD
ENDBRANCH  20  21
BRANCH  20  23
HETATM   23  C20 UNL     1      -1.772  52.530  -9.608  1.00  0.00     0.185 C 
HETATM   24  O4  UNL     1      -2.215  51.957  -8.608  1.00  0.00    -0.292 OA
BRANCH  23  25
HETATM   25  C21 UNL     1      -2.666  52.721 -10.828  1.00  0.00     0.260 C 
BRANCH  25  26
HETATM   26  O5  UNL     1      -3.786  51.833 -10.810  1.00  0.00    -0.314 OA
BRANCH  26  27
HETATM   27  C22 UNL     1      -3.716  50.827 -11.727  1.00  0.00     0.259 C 
HETATM   28  O6  UNL     1      -4.292  49.753 -11.621  1.00  0.00    -0.265 OA
BRANCH  27  29
HETATM   29  C23 UNL     1      -2.728  51.140 -12.827  1.00  0.00     0.120 C 
BRANCH  29  30
HETATM   30  C24 UNL     1      -2.494  50.002 -13.815  1.00  0.00     0.112 C 
BRANCH  30  31
HETATM   31  C25 UNL     1      -2.682  50.444 -15.251  1.00  0.00     0.218 C 
HETATM   32  O7  UNL     1      -3.329  51.434 -15.568  1.00  0.00    -0.274 OA
HETATM   33  N1  UNL     1      -2.044  49.628 -16.155  1.00  0.00    -0.361 N 
HETATM   34  H34 UNL     1      -1.575  48.791 -15.833  1.00  0.00     0.162 HD
BRANCH  33  35
HETATM   35  C26 UNL     1      -2.127  49.861 -17.587  1.00  0.00     0.127 C 
BRANCH  35  36
HETATM   36  C27 UNL     1      -0.769  49.721 -18.280  1.00  0.00     0.060 C 
BRANCH  36  37
HETATM   37  C28 UNL     1      -0.103  51.044 -18.480  1.00  0.00    -0.029 A 
HETATM   38  C29 UNL     1       0.382  51.873 -17.487  1.00  0.00     0.096 A 
HETATM   39  N2  UNL     1       0.925  52.981 -18.078  1.00  0.00    -0.365 N 
HETATM   40  C30 UNL     1       0.811  52.895 -19.446  1.00  0.00     0.042 A 
HETATM   41  H40 UNL     1       1.355  53.751 -17.588  1.00  0.00     0.165 HD
HETATM   42  C31 UNL     1       1.227  53.784 -20.443  1.00  0.00     0.030 A 
HETATM   43  C35 UNL     1       0.163  51.693 -19.729  1.00  0.00    -0.002 A 
HETATM   44  C32 UNL     1       0.972  53.432 -21.772  1.00  0.00     0.002 A 
HETATM   45  C33 UNL     1       0.325  52.241 -22.089  1.00  0.00     0.001 A 
HETATM   46  C34 UNL     1      -0.084  51.364 -21.078  1.00  0.00     0.014 A 
ENDBRANCH  36  37
ENDBRANCH  35  36
ENDBRANCH  33  35
ENDBRANCH  30  31
ENDBRANCH  29  30
ENDBRANCH  27  29
ENDBRANCH  26  27
ENDBRANCH  25  26
ENDBRANCH  23  25
ENDBRANCH  20  23
BRANCH  13  47
HETATM   47  O2  UNL     1       0.317  55.794  -6.090  1.00  0.00    -0.395 OA
HETATM   48  H16 UNL     1      -0.325  55.378  -5.489  1.00  0.00     0.210 HD
ENDBRANCH  13  47
TORSDOF 12
ENDMDL
