MODEL 1
REMARK minimizedAffinity -9.06640625
REMARK  4 active torsions:
REMARK  status: ('A' for Active; 'I' for Inactive)
REMARK    1  A    between atoms: C12_13  and  C13_14 
REMARK    2  A    between atoms: C20_21  and  C21_22 
REMARK    3  A    between atoms: C21_22  and  C22_23 
REMARK    4  A    between atoms: C23_24  and  O2_25 
ROOT
HETATM    1  C1  UNL     1      -0.315   5.962  11.236  1.00  0.00     0.015 C 
HETATM    2  C2  UNL     1      -0.679   6.356  12.468  1.00  0.00    -0.084 C 
HETATM    3  C3  UNL     1       0.339   6.635  13.548  1.00  0.00     0.034 C 
HETATM    4  C4  UNL     1       0.145   8.015  14.182  1.00  0.00     0.010 C 
HETATM    5  C5  UNL     1      -1.322   8.271  14.598  1.00  0.00     0.006 C 
HETATM    6  C6  UNL     1      -2.317   8.060  13.400  1.00  0.00    -0.032 C 
HETATM    7  C7  UNL     1      -2.026   9.024  12.214  1.00  0.00     0.016 C 
HETATM    8  C8  UNL     1      -3.791   8.327  13.837  1.00  0.00     0.013 C 
HETATM    9  C9  UNL     1      -3.938   8.714  15.306  1.00  0.00     0.039 C 
HETATM   10  C10 UNL     1      -3.039   9.905  15.689  1.00  0.00     0.066 C 
HETATM   11  C11 UNL     1      -3.561  11.184  15.014  1.00  0.00     0.047 C 
HETATM   12  O1  UNL     1      -3.241  10.125  17.106  1.00  0.00    -0.371 OA
HETATM   13  C12 UNL     1      -2.002  10.038  17.813  1.00  0.00     0.146 C 
HETATM   14  C17 UNL     1      -1.042   9.301  16.899  1.00  0.00     0.048 C 
HETATM   15  C18 UNL     1      -1.527   9.579  15.458  1.00  0.00    -0.006 C 
HETATM   16  C19 UNL     1      -0.710  10.773  14.916  1.00  0.00     0.019 C 
HETATM   17  C20 UNL     1      -2.142   6.580  12.852  1.00  0.00     0.027 C 
ENDROOT
BRANCH  17  18
HETATM   18  C21 UNL     1      -2.628   5.451  13.814  1.00  0.00     0.057 C 
BRANCH  18  19
HETATM   19  C22 UNL     1      -3.593   4.485  13.159  1.00  0.00     0.052 A 
HETATM   20  C23 UNL     1      -4.925   4.555  13.315  1.00  0.00     0.086 A 
HETATM   21  C24 UNL     1      -5.835   3.617  12.676  1.00  0.00     0.001 A 
HETATM   22  C25 UNL     1      -7.304   3.683  13.001  1.00  0.00     0.054 C 
HETATM   23  C26 UNL     1      -5.302   2.697  11.849  1.00  0.00     0.061 A 
HETATM   24  C27 UNL     1      -6.046   1.671  11.050  1.00  0.00     0.077 C 
HETATM   25  O3  UNL     1      -3.902   2.612  11.651  1.00  0.00    -0.279 OA
HETATM   26  C28 UNL     1      -3.018   3.410  12.318  1.00  0.00     0.297 A 
HETATM   27  O4  UNL     1      -1.808   3.238  12.214  1.00  0.00    -0.259 OA
BRANCH  20  28
HETATM   28  O2  UNL     1      -5.467   5.564  14.091  1.00  0.00    -0.359 OA
HETATM   29  H34 UNL     1      -6.397   5.701  13.854  1.00  0.00     0.217 HD
ENDBRANCH  20  28
ENDBRANCH  18  19
ENDBRANCH  17  18
BRANCH  13  30
HETATM   30  C13 UNL     1      -1.571  11.427  18.197  1.00  0.00     0.007 C 
HETATM   31  C14 UNL     1      -0.653  11.764  19.125  1.00  0.00    -0.089 C 
HETATM   32  C15 UNL     1       0.142  10.779  19.935  1.00  0.00     0.042 C 
HETATM   33  C16 UNL     1      -0.348  13.209  19.420  1.00  0.00     0.042 C 
ENDBRANCH  13  30
TORSDOF 4
ENDMDL
