MODEL 1
REMARK minimizedAffinity -9.17271805
REMARK CNNscore 0.74635011
REMARK CNNaffinity 6.76906395
REMARK  8 active torsions:
REMARK  status: ('A' for Active; 'I' for Inactive)
REMARK    1  A    between atoms: C2_2  and  C3_3 
REMARK    2  A    between atoms: C2_2  and  C27_30 
REMARK    3  A    between atoms: C3_3  and  C4_4 
REMARK    4  A    between atoms: C4_4  and  C5_5 
REMARK    5  A    between atoms: C5_5  and  C7_7 
REMARK    6  A    between atoms: C26_28  and  O3_29 
REMARK    7  A    between atoms: C27_30  and  C29_32 
REMARK    8  A    between atoms: C29_32  and  O5_34 
ROOT
HETATM    1  C7  UNL     1      -0.859  10.726  18.154  1.00  0.00    -0.002 C 
HETATM    2  C8  UNL     1      -2.197  11.401  18.556  1.00  0.00     0.006 C 
HETATM    3  C9  UNL     1      -3.275  10.806  17.641  1.00  0.00     0.010 C 
HETATM    4  C10 UNL     1      -2.614   9.565  17.038  1.00  0.00     0.027 C 
HETATM    5  C11 UNL     1      -3.213   8.798  15.875  1.00  0.00    -0.036 C 
HETATM    6  C12 UNL     1      -2.434   7.971  15.129  1.00  0.00     0.002 C 
HETATM    7  C13 UNL     1      -0.933   7.968  15.367  1.00  0.00     0.157 C 
HETATM    8  O1  UNL     1      -0.187   7.275  14.676  1.00  0.00    -0.293 OA
HETATM    9  C14 UNL     1      -0.336   8.800  16.488  1.00  0.00     0.093 C 
HETATM   10  C15 UNL     1      -1.165  10.049  16.782  1.00  0.00    -0.026 C 
HETATM   11  C16 UNL     1      -1.064  11.027  15.591  1.00  0.00     0.016 C 
HETATM   12  C17 UNL     1      -2.994   7.027  14.041  1.00  0.00    -0.008 C 
HETATM   13  C18 UNL     1      -2.674   7.686  12.674  1.00  0.00     0.021 C 
HETATM   14  C19 UNL     1      -2.342   5.606  14.092  1.00  0.00     0.022 C 
HETATM   15  C20 UNL     1      -3.239   4.435  13.695  1.00  0.00     0.080 C 
HETATM   16  C21 UNL     1      -4.292   4.843  12.702  1.00  0.00     0.131 C 
HETATM   17  O2  UNL     1      -4.475   4.214  11.660  1.00  0.00    -0.298 OA
HETATM   18  C22 UNL     1      -5.183   6.013  13.089  1.00  0.00     0.056 C 
HETATM   19  C23 UNL     1      -6.564   5.468  13.452  1.00  0.00     0.018 C 
HETATM   20  C24 UNL     1      -4.538   6.823  14.242  1.00  0.00     0.012 C 
HETATM   21  C25 UNL     1      -5.244   8.162  14.446  1.00  0.00     0.042 C 
HETATM   22  C26 UNL     1      -4.705   8.903  15.669  1.00  0.00     0.148 C 
ENDROOT
BRANCH   1  23
HETATM   23  C5  UNL     1       0.393  11.624  18.386  1.00  0.00    -0.014 C 
HETATM   24  C6  UNL     1       1.673  11.173  17.675  1.00  0.00     0.010 C 
BRANCH  23  25
HETATM   25  C4  UNL     1       0.633  11.873  19.895  1.00  0.00     0.009 C 
BRANCH  25  26
HETATM   26  C3  UNL     1       1.185  10.666  20.680  1.00  0.00     0.034 C 
BRANCH  26  27
HETATM   27  C2  UNL     1       2.370  10.862  21.613  1.00  0.00    -0.075 C 
HETATM   28  C1  UNL     1       2.730  12.072  22.080  1.00  0.00     0.015 C 
BRANCH  27  29
HETATM   29  C27 UNL     1       3.199   9.627  21.976  1.00  0.00     0.107 C 
HETATM   30  C28 UNL     1       4.464   9.971  22.762  1.00  0.00     0.026 C 
BRANCH  29  31
HETATM   31  C29 UNL     1       2.389   8.572  22.729  1.00  0.00     0.147 C 
HETATM   32  O4  UNL     1       1.767   7.628  22.273  1.00  0.00    -0.650 OA
BRANCH  31  33
HETATM   33  O5  UNL     1       2.391   8.787  24.064  1.00  0.00    -0.776 OA
HETATM   34  H42 UNL     1       1.846   8.053  24.417  1.00  0.00     0.167 HD
ENDBRANCH  31  33
ENDBRANCH  29  31
ENDBRANCH  27  29
ENDBRANCH  26  27
ENDBRANCH  25  26
ENDBRANCH  23  25
ENDBRANCH   1  23
BRANCH  22  35
HETATM   35  O3  UNL     1      -5.062  10.270  15.503  1.00  0.00    -0.391 OA
HETATM   36  H37 UNL     1      -6.032  10.316  15.446  1.00  0.00     0.210 HD
ENDBRANCH  22  35
TORSDOF 8
ENDMDL
