MODEL 1
REMARK minimizedAffinity -9.69258404
REMARK  4 active torsions:
REMARK  status: ('A' for Active; 'I' for Inactive)
REMARK    1  A    between atoms: C2_2  and  C4_4 
REMARK    2  A    between atoms: C4_4  and  O1_5 
REMARK    3  A    between atoms: C8_10  and  O2_11 
REMARK    4  A    between atoms: C21_27  and  O6_28 
ROOT
HETATM    1  C4  UNL     1      -1.020  51.491 -26.458  1.00  0.00     0.106 C 
HETATM    2  C5  UNL     1      -1.924  50.299 -26.859  1.00  0.00     0.126 C 
HETATM    3 CL1  UNL     1      -3.221  50.760 -28.021  1.00  0.00    -0.121 Cl
HETATM    4  C6  UNL     1      -2.461  49.486 -25.630  1.00  0.00     0.041 C 
HETATM    5  C7  UNL     1      -3.269  48.297 -26.210  1.00  0.00     0.015 C 
HETATM    6  C8  UNL     1      -3.208  50.383 -24.557  1.00  0.00     0.107 C 
HETATM    7  C9  UNL     1      -2.368  51.672 -24.308  1.00  0.00     0.148 A 
HETATM    8  O3  UNL     1      -2.962  52.603 -23.378  1.00  0.00    -0.363 OA
HETATM    9  C10 UNL     1      -1.753  51.971 -22.948  1.00  0.00     0.164 A 
HETATM   10  C11 UNL     1      -1.921  51.076 -21.775  1.00  0.00     0.045 C 
HETATM   11  C12 UNL     1      -2.294  49.657 -22.209  1.00  0.00     0.031 C 
HETATM   12  C13 UNL     1      -2.443  48.735 -21.026  1.00  0.00    -0.038 A 
HETATM   13  C14 UNL     1      -3.382  47.797 -20.935  1.00  0.00     0.022 A 
HETATM   14  C15 UNL     1      -4.396  47.474 -21.963  1.00  0.00     0.046 C 
HETATM   15  C16 UNL     1      -4.019  48.164 -23.291  1.00  0.00     0.018 C 
HETATM   16  C17 UNL     1      -3.568  49.656 -23.147  1.00  0.00    -0.002 C 
HETATM   17  C18 UNL     1      -4.783  50.383 -22.470  1.00  0.00     0.019 C 
HETATM   18  C19 UNL     1      -3.175  47.087 -19.676  1.00  0.00     0.289 A 
HETATM   19  O4  UNL     1      -3.850  46.163 -19.263  1.00  0.00    -0.260 OA
HETATM   20  O5  UNL     1      -2.094  47.629 -19.048  1.00  0.00    -0.313 OA
HETATM   21  C20 UNL     1      -1.560  48.691 -19.845  1.00  0.00     0.214 A 
HETATM   22  C21 UNL     1      -1.790  52.416 -25.491  1.00  0.00     0.194 C 
ENDROOT
BRANCH   1  23
HETATM   23  C2  UNL     1      -0.445  52.293 -27.687  1.00  0.00     0.016 C 
HETATM   24  C1  UNL     1       0.788  51.637 -28.333  1.00  0.00     0.012 C 
HETATM   25  C3  UNL     1      -0.067  53.741 -27.330  1.00  0.00     0.012 C 
ENDBRANCH   1  23
BRANCH   1  26
HETATM   26  O1  UNL     1       0.101  50.959 -25.703  1.00  0.00    -0.385 OA
HETATM   27  H8  UNL     1       0.647  50.420 -26.302  1.00  0.00     0.210 HD
ENDBRANCH   1  26
BRANCH  22  28
HETATM   28  O6  UNL     1      -2.828  53.166 -26.113  1.00  0.00    -0.389 OA
HETATM   29  H29 UNL     1      -3.147  53.796 -25.439  1.00  0.00     0.210 HD
ENDBRANCH  22  28
BRANCH   6  30
HETATM   30  O2  UNL     1      -4.460  50.755 -25.151  1.00  0.00    -0.385 OA
HETATM   31  H14 UNL     1      -4.516  51.734 -25.155  1.00  0.00     0.210 HD
ENDBRANCH   6  30
TORSDOF 4
ENDMDL
