MODEL 1
REMARK minimizedAffinity -10.8259392
REMARK CNNscore 0.669505835
REMARK CNNaffinity 7.09878397
REMARK  10 active torsions:
REMARK  status: ('A' for Active; 'I' for Inactive)
REMARK    1  A    between atoms: C2_2  and  C3_3 
REMARK    2  A    between atoms: C2_2  and  C9_11 
REMARK    3  A    between atoms: C3_3  and  C4_4 
REMARK    4  A    between atoms: C4_4  and  C5_5 
REMARK    5  A    between atoms: C5_5  and  O1_6 
REMARK    6  A    between atoms: C5_5  and  C6_7 
REMARK    7  A    between atoms: C6_7  and  O2_10 
REMARK    8  A    between atoms: C10_12  and  O3_13 
REMARK    9  A    between atoms: C12_15  and  C13_16 
REMARK   10  A    between atoms: C13_16  and  O5_18 
ROOT
HETATM    1  C9  UNL     1       1.019   7.060  12.981  1.00  0.00     0.028 C 
HETATM    2  C10 UNL     1       0.653   7.806  14.289  1.00  0.00     0.124 C 
HETATM    3  C11 UNL     1      -0.851   7.647  14.485  1.00  0.00     0.053 C 
HETATM    4  C12 UNL     1      -1.425   7.608  13.051  1.00  0.00     0.060 C 
HETATM    5  C14 UNL     1      -2.911   7.090  12.998  1.00  0.00     0.014 C 
HETATM    6  C15 UNL     1      -3.831   7.942  13.905  1.00  0.00     0.007 C 
HETATM    7  C16 UNL     1      -5.266   7.438  14.083  1.00  0.00     0.007 C 
HETATM    8  C17 UNL     1      -5.613   6.149  13.323  1.00  0.00     0.010 C 
HETATM    9  C18 UNL     1      -7.021   5.573  13.695  1.00  0.00     0.018 C 
HETATM   10  C19 UNL     1      -8.124   6.613  13.420  1.00  0.00     0.023 C 
HETATM   11  C20 UNL     1      -7.121   5.112  15.160  1.00  0.00     0.023 C 
HETATM   12  C21 UNL     1      -7.313   4.354  12.810  1.00  0.00     0.135 C 
HETATM   13  O6  UNL     1      -8.443   3.860  12.727  1.00  0.00    -0.297 OA
HETATM   14  C22 UNL     1      -6.172   3.779  12.009  1.00  0.00     0.080 C 
HETATM   15  C23 UNL     1      -4.922   3.716  12.869  1.00  0.00     0.018 C 
HETATM   16  C24 UNL     1      -4.510   5.081  13.417  1.00  0.00    -0.026 A 
HETATM   17  C25 UNL     1      -3.545   5.059  14.592  1.00  0.00     0.021 A 
HETATM   18  C26 UNL     1      -3.059   5.588  13.261  1.00  0.00    -0.027 A 
HETATM   19  C27 UNL     1      -2.072   4.740  12.489  1.00  0.00     0.011 C 
HETATM   20  C28 UNL     1      -0.642   5.194  12.728  1.00  0.00     0.012 C 
HETATM   21  C29 UNL     1      -0.372   6.686  12.324  1.00  0.00    -0.020 C 
HETATM   22  C30 UNL     1      -0.449   6.738  10.789  1.00  0.00     0.017 C 
ENDROOT
BRANCH   1  23
HETATM   23  C2  UNL     1       2.172   7.804  12.237  1.00  0.00    -0.011 C 
HETATM   24  C1  UNL     1       2.551   9.195  12.748  1.00  0.00     0.010 C 
BRANCH  23  25
HETATM   25  C3  UNL     1       1.987   7.824  10.698  1.00  0.00     0.007 C 
BRANCH  25  26
HETATM   26  C4  UNL     1       2.333   6.488  10.007  1.00  0.00     0.035 C 
BRANCH  26  27
HETATM   27  C5  UNL     1       2.961   6.679   8.608  1.00  0.00     0.151 C 
BRANCH  27  28
HETATM   28  O1  UNL     1       3.118   5.417   7.957  1.00  0.00    -0.393 OA
HETATM   29  H10 UNL     1       2.259   4.960   7.978  1.00  0.00     0.210 HD
ENDBRANCH  27  28
BRANCH  27  30
HETATM   30  C6  UNL     1       2.186   7.679   7.697  1.00  0.00     0.076 C 
HETATM   31  C7  UNL     1       1.928   7.047   6.323  1.00  0.00     0.048 C 
HETATM   32  C8  UNL     1       0.851   8.122   8.305  1.00  0.00     0.048 C 
BRANCH  30  33
HETATM   33  O2  UNL     1       2.990   8.848   7.499  1.00  0.00    -0.388 OA
HETATM   34  H17 UNL     1       2.525   9.431   6.873  1.00  0.00     0.210 HD
ENDBRANCH  30  33
ENDBRANCH  27  30
ENDBRANCH  26  27
ENDBRANCH  25  26
ENDBRANCH  23  25
ENDBRANCH   1  23
BRANCH   2  35
HETATM   35  O3  UNL     1       1.360   7.236  15.382  1.00  0.00    -0.395 OA
HETATM   36  H20 UNL     1       1.089   7.719  16.181  1.00  0.00     0.210 HD
ENDBRANCH   2  35
BRANCH   4  37
HETATM   37  C13 UNL     1      -1.474   9.012  12.420  1.00  0.00     0.150 C 
HETATM   38  O4  UNL     1      -1.841   9.279  11.285  1.00  0.00    -0.649 OA
BRANCH  37  39
HETATM   39  O5  UNL     1      -1.165  10.022  13.253  1.00  0.00    -0.776 OA
HETATM   40  H23 UNL     1      -1.309  10.827  12.707  1.00  0.00     0.167 HD
ENDBRANCH  37  39
ENDBRANCH   4  37
TORSDOF 10
ENDMDL
