MODEL 1
REMARK minimizedAffinity -8.42606544
REMARK  11 active torsions:
REMARK  status: ('A' for Active; 'I' for Inactive)
REMARK    1  A    between atoms: C2_2  and  O1_3 
REMARK    2  A    between atoms: C2_2  and  C3_4 
REMARK    3  A    between atoms: C4_5  and  C5_6 
REMARK    4  A    between atoms: C5_6  and  O2_7 
REMARK    5  A    between atoms: C9_11  and  O3_12 
REMARK    6  A    between atoms: O3_12  and  C10_13 
REMARK    7  A    between atoms: C11_15  and  C12_16 
REMARK    8  A    between atoms: C12_16  and  O5_17 
REMARK    9  A    between atoms: C13_18  and  O6_19 
REMARK   10  A    between atoms: C14_20  and  O7_21 
REMARK   11  A    between atoms: C15_22  and  O8_23 
ROOT
HETATM    1  C5  UNL     1      -6.532   5.715  14.186  1.00  0.00     0.086 C 
HETATM    2  C6  UNL     1      -6.363   4.542  13.149  1.00  0.00     0.023 C 
HETATM    3  C7  UNL     1      -7.331   3.367  13.373  1.00  0.00     0.013 C 
HETATM    4  C8  UNL     1      -4.928   3.999  13.180  1.00  0.00     0.039 C 
HETATM    5  C9  UNL     1      -3.902   5.039  12.728  1.00  0.00     0.126 C 
HETATM    6  C16 UNL     1      -4.420   6.476  12.886  1.00  0.00     0.044 C 
HETATM    7  C17 UNL     1      -5.279   6.719  14.157  1.00  0.00    -0.010 C 
HETATM    8  C18 UNL     1      -4.386   6.572  15.415  1.00  0.00     0.018 C 
HETATM    9  C19 UNL     1      -5.693   8.215  14.119  1.00  0.00     0.018 C 
ENDROOT
BRANCH   5  10
HETATM   10  O3  UNL     1      -2.683   4.922  13.468  1.00  0.00    -0.353 OA
BRANCH  10  11
HETATM   11  C10 UNL     1      -1.666   5.857  13.095  1.00  0.00     0.292 C 
HETATM   12  O4  UNL     1      -1.261   5.688  11.740  1.00  0.00    -0.348 OA
HETATM   13  C11 UNL     1      -0.086   4.895  11.512  1.00  0.00     0.179 C 
HETATM   14  C13 UNL     1       1.142   5.514  12.213  1.00  0.00     0.180 C 
HETATM   15  C14 UNL     1       0.789   6.236  13.521  1.00  0.00     0.183 C 
HETATM   16  C15 UNL     1      -0.516   5.739  14.122  1.00  0.00     0.204 C 
BRANCH  13  17
HETATM   17  C12 UNL     1      -0.287   3.406  11.853  1.00  0.00     0.198 C 
BRANCH  17  18
HETATM   18  O5  UNL     1       0.588   2.609  11.053  1.00  0.00    -0.398 OA
HETATM   19  H20 UNL     1       0.046   1.924  10.609  1.00  0.00     0.209 HD
ENDBRANCH  17  18
ENDBRANCH  13  17
BRANCH  14  20
HETATM   20  O6  UNL     1       1.733   6.506  11.346  1.00  0.00    -0.390 OA
HETATM   21  H22 UNL     1       2.068   6.045  10.558  1.00  0.00     0.210 HD
ENDBRANCH  14  20
BRANCH  15  22
HETATM   22  O7  UNL     1       1.847   6.036  14.478  1.00  0.00    -0.390 OA
HETATM   23  H24 UNL     1       1.486   6.322  15.340  1.00  0.00     0.210 HD
ENDBRANCH  15  22
BRANCH  16  24
HETATM   24  O8  UNL     1      -0.779   6.482  15.333  1.00  0.00    -0.388 OA
HETATM   25  H26 UNL     1      -1.038   7.387  15.084  1.00  0.00     0.210 HD
ENDBRANCH  16  24
ENDBRANCH  10  11
ENDBRANCH   5  10
BRANCH   1  26
HETATM   26  C4  UNL     1      -7.866   6.443  14.074  1.00  0.00     0.010 C 
HETATM   27  C3  UNL     1      -8.686   6.862  15.057  1.00  0.00     0.003 C 
BRANCH  27  28
HETATM   28  C2  UNL     1     -10.005   7.571  14.883  1.00  0.00     0.136 C 
HETATM   29  C1  UNL     1     -10.233   8.600  15.988  1.00  0.00     0.043 C 
BRANCH  28  30
HETATM   30  O1  UNL     1     -11.089   6.649  14.884  1.00  0.00    -0.392 OA
HETATM   31  H5  UNL     1     -11.136   6.263  15.776  1.00  0.00     0.210 HD
ENDBRANCH  28  30
ENDBRANCH  27  28
ENDBRANCH   1  26
BRANCH   1  32
HETATM   32  O2  UNL     1      -6.576   5.108  15.493  1.00  0.00    -0.385 OA
HETATM   33  H8  UNL     1      -7.450   4.692  15.598  1.00  0.00     0.211 HD
ENDBRANCH   1  32
TORSDOF 11
ENDMDL
