MODEL 1
REMARK minimizedAffinity -10.5491333
REMARK  9 active torsions:
REMARK  status: ('A' for Active; 'I' for Inactive)
REMARK    1  A    between atoms: C2_2  and  C3_3 
REMARK    2  A    between atoms: C2_2  and  C11_13 
REMARK    3  A    between atoms: C3_3  and  C4_4 
REMARK    4  A    between atoms: C4_4  and  C5_5 
REMARK    5  A    between atoms: C5_5  and  C8_9 
REMARK    6  A    between atoms: C6_6  and  C7_7 
REMARK    7  A    between atoms: C7_7  and  O1_8 
REMARK    8  A    between atoms: C8_9  and  O2_12 
REMARK    9  A    between atoms: C25_27  and  O3_28 
ROOT
HETATM    1  C11 UNL     1       0.356   6.759  11.714  1.00  0.00     0.005 C 
HETATM    2  C12 UNL     1       0.443   5.317  11.165  1.00  0.00     0.033 C 
HETATM    3  C13 UNL     1      -0.943   4.807  11.363  1.00  0.00    -0.018 C 
HETATM    4  C14 UNL     1      -1.622   5.548  12.249  1.00  0.00    -0.047 C 
HETATM    5  C15 UNL     1      -3.005   5.395  12.673  1.00  0.00    -0.048 C 
HETATM    6  C16 UNL     1      -3.624   6.382  13.368  1.00  0.00    -0.064 C 
HETATM    7  C17 UNL     1      -2.908   7.686  13.699  1.00  0.00     0.036 C 
HETATM    8  C18 UNL     1      -1.606   7.923  12.923  1.00  0.00     0.019 C 
HETATM    9  C19 UNL     1      -0.749   6.654  12.821  1.00  0.00    -0.012 C 
HETATM   10  C20 UNL     1      -0.205   6.214  14.195  1.00  0.00     0.021 C 
HETATM   11  C21 UNL     1      -5.060   6.208  13.918  1.00  0.00    -0.016 C 
HETATM   12  C22 UNL     1      -4.907   5.785  15.402  1.00  0.00     0.020 C 
HETATM   13  C23 UNL     1      -5.907   7.511  13.851  1.00  0.00     0.016 C 
HETATM   14  C24 UNL     1      -7.366   7.315  14.275  1.00  0.00     0.033 C 
HETATM   15  C25 UNL     1      -8.051   6.200  13.491  1.00  0.00     0.118 C 
HETATM   16  C26 UNL     1      -7.253   4.898  13.522  1.00  0.00     0.037 C 
HETATM   17  C27 UNL     1      -5.809   5.135  13.064  1.00  0.00     0.001 C 
HETATM   18  C28 UNL     1      -5.019   3.832  12.998  1.00  0.00     0.010 C 
HETATM   19  C29 UNL     1      -3.665   4.072  12.336  1.00  0.00     0.040 C 
ENDROOT
BRANCH   1  20
HETATM   20  C2  UNL     1       1.746   7.331  12.103  1.00  0.00    -0.013 C 
HETATM   21  C1  UNL     1       1.839   8.850  11.915  1.00  0.00     0.010 C 
BRANCH  20  22
HETATM   22  C3  UNL     1       2.915   6.630  11.353  1.00  0.00     0.009 C 
BRANCH  22  23
HETATM   23  C4  UNL     1       3.436   7.368  10.106  1.00  0.00     0.037 C 
BRANCH  23  24
HETATM   24  C5  UNL     1       2.961   6.740   8.795  1.00  0.00    -0.049 C 
HETATM   25  C6  UNL     1       3.211   5.440   8.511  1.00  0.00     0.004 C 
BRANCH  25  26
HETATM   26  C7  UNL     1       3.943   4.429   9.336  1.00  0.00     0.191 C 
BRANCH  26  27
HETATM   27  O1  UNL     1       3.002   3.458   9.768  1.00  0.00    -0.397 OA
HETATM   28  H12 UNL     1       2.329   3.933  10.287  1.00  0.00     0.209 HD
ENDBRANCH  26  27
ENDBRANCH  25  26
BRANCH  24  29
HETATM   29  C8  UNL     1       2.137   7.653   7.868  1.00  0.00     0.074 C 
HETATM   30  C9  UNL     1       1.828   6.999   6.515  1.00  0.00     0.050 C 
HETATM   31  C10 UNL     1       0.813   8.174   8.455  1.00  0.00     0.050 C 
BRANCH  29  32
HETATM   32  O2  UNL     1       2.938   8.811   7.603  1.00  0.00    -0.386 OA
HETATM   33  H19 UNL     1       3.190   9.180   8.466  1.00  0.00     0.211 HD
ENDBRANCH  29  32
ENDBRANCH  24  29
ENDBRANCH  23  24
ENDBRANCH  22  23
ENDBRANCH  20  22
ENDBRANCH   1  20
BRANCH  15  34
HETATM   34  O3  UNL     1      -9.354   5.974  14.019  1.00  0.00    -0.396 OA
HETATM   35  H39 UNL     1      -9.261   5.691  14.944  1.00  0.00     0.210 HD
ENDBRANCH  15  34
TORSDOF 9
ENDMDL
