MODEL 1
REMARK minimizedAffinity -9.82354927
REMARK  5 active torsions:
REMARK  status: ('A' for Active; 'I' for Inactive)
REMARK    1  A    between atoms: C2_2  and  C25_28 
REMARK    2  A    between atoms: C3_3  and  C4_4 
REMARK    3  A    between atoms: C4_4  and  C6_6 
REMARK    4  A    between atoms: C20_20  and  O1_21 
REMARK    5  A    between atoms: C25_28  and  C27_30 
ROOT
HETATM    1  C6  UNL     1      -1.211  49.252 -19.718  1.00  0.00     0.001 C 
HETATM    2  C7  UNL     1      -2.601  48.654 -20.089  1.00  0.00     0.006 C 
HETATM    3  C8  UNL     1      -2.916  49.098 -21.528  1.00  0.00     0.009 C 
HETATM    4  C9  UNL     1      -1.647  49.819 -21.972  1.00  0.00     0.036 C 
HETATM    5  C10 UNL     1      -1.099  50.483 -20.683  1.00  0.00    -0.033 C 
HETATM    6  C11 UNL     1      -1.940  51.670 -20.166  1.00  0.00     0.016 C 
HETATM    7  C12 UNL     1       0.336  50.949 -21.001  1.00  0.00     0.010 C 
HETATM    8  C13 UNL     1       0.389  51.905 -22.206  1.00  0.00     0.010 C 
HETATM    9  C14 UNL     1      -0.260  51.312 -23.473  1.00  0.00     0.039 C 
HETATM   10  C15 UNL     1      -1.679  50.691 -23.230  1.00  0.00     0.123 C 
HETATM   11  C16 UNL     1      -2.791  51.700 -23.351  1.00  0.00     0.014 C 
HETATM   12  C17 UNL     1      -2.822  52.314 -24.544  1.00  0.00     0.014 C 
HETATM   13  C18 UNL     1      -1.667  51.947 -25.458  1.00  0.00     0.124 C 
HETATM   14  C19 UNL     1      -1.799  52.591 -26.844  1.00  0.00     0.078 C 
HETATM   15  C20 UNL     1      -0.524  52.509 -27.691  1.00  0.00     0.121 C 
HETATM   16  C21 UNL     1       0.567  51.620 -27.101  1.00  0.00     0.033 C 
HETATM   17  C22 UNL     1       0.921  52.003 -25.661  1.00  0.00     0.015 C 
HETATM   18  C23 UNL     1      -0.307  52.274 -24.735  1.00  0.00     0.001 C 
HETATM   19  C24 UNL     1      -0.258  53.775 -24.339  1.00  0.00     0.019 C 
HETATM   20  O2  UNL     1      -1.713  50.505 -25.647  1.00  0.00    -0.223 OA
HETATM   21  O3  UNL     1      -1.917  49.793 -24.353  1.00  0.00    -0.224 OA
ENDROOT
BRANCH   1  22
HETATM   22  C4  UNL     1      -1.047  49.455 -18.188  1.00  0.00     0.009 C 
HETATM   23  C5  UNL     1      -2.372  49.628 -17.437  1.00  0.00     0.014 C 
BRANCH  22  24
HETATM   24  C3  UNL     1      -0.101  50.564 -17.739  1.00  0.00    -0.019 C 
HETATM   25  C2  UNL     1       0.661  50.708 -16.633  1.00  0.00    -0.083 C 
HETATM   26  C1  UNL     1       0.760  49.672 -15.543  1.00  0.00     0.043 C 
BRANCH  25  27
HETATM   27  C25 UNL     1       1.521  51.964 -16.399  1.00  0.00     0.013 C 
HETATM   28  C26 UNL     1       1.735  52.761 -17.705  1.00  0.00     0.015 C 
BRANCH  27  29
HETATM   29  C27 UNL     1       2.874  51.644 -15.686  1.00  0.00    -0.015 C 
HETATM   30  C28 UNL     1       4.050  52.427 -16.286  1.00  0.00     0.010 C 
HETATM   31  C29 UNL     1       2.826  51.920 -14.178  1.00  0.00     0.010 C 
ENDBRANCH  27  29
ENDBRANCH  25  27
ENDBRANCH  22  24
ENDBRANCH   1  22
BRANCH  15  32
HETATM   32  O1  UNL     1      -0.019  53.838 -27.856  1.00  0.00    -0.395 OA
HETATM   33  H28 UNL     1       0.842  53.780 -28.310  1.00  0.00     0.210 HD
ENDBRANCH  15  32
TORSDOF 5
ENDMDL
