MODEL 1
REMARK minimizedAffinity -7.49219084
REMARK CNNscore 0.614077628
REMARK CNNaffinity 6.6331749
REMARK  8 active torsions:
REMARK  status: ('A' for Active; 'I' for Inactive)
REMARK    1  A    between atoms: C3_3  and  O1_4 
REMARK    2  A    between atoms: N1_14  and  O2_16 
REMARK    3  A    between atoms: O2_16  and  C13_17 
REMARK    4  A    between atoms: C13_17  and  C14_18 
REMARK       I    between atoms: C14_18  and  N2_20 
REMARK    5  A    between atoms: N2_20  and  C15_21 
REMARK    6  A    between atoms: C15_21  and  C16_22 
REMARK    7  A    between atoms: C16_22  and  O4_23 
REMARK    8  A    between atoms: C16_22  and  C17_24 
ROOT
HETATM    1  C1  UNL     1      10.485  55.391  -3.427  1.00  0.00     0.015 C 
HETATM    2  C2  UNL     1       9.343  55.140  -3.698  1.00  0.00    -0.078 C 
HETATM    3  C3  UNL     1       7.945  54.816  -4.018  1.00  0.00     0.128 C 
HETATM    4  C4  UNL     1       6.979  55.209  -2.878  1.00  0.00     0.052 C 
HETATM    5  C5  UNL     1       5.643  55.569  -3.557  1.00  0.00     0.010 C 
HETATM    6  C6  UNL     1       5.862  55.282  -5.048  1.00  0.00     0.002 C 
HETATM    7  C7  UNL     1       4.935  56.008  -6.042  1.00  0.00    -0.004 C 
HETATM    8  C8  UNL     1       3.501  55.451  -5.913  1.00  0.00     0.010 C 
HETATM    9  C9  UNL     1       3.209  54.321  -6.888  1.00  0.00     0.035 C 
HETATM   10  C10 UNL     1       3.485  54.675  -8.330  1.00  0.00    -0.069 C 
HETATM   11  C11 UNL     1       2.993  53.869  -9.289  1.00  0.00     0.030 C 
HETATM   12  C12 UNL     1       3.274  54.105 -10.738  1.00  0.00     0.032 C 
HETATM   13  N1  UNL     1       3.018  53.276 -11.707  1.00  0.00    -0.271 N 
ATOM     14  H1  UNL     1       3.175  53.478 -12.694  1.00  0.00     0.194 HD
HETATM   15  C23 UNL     1       3.927  55.424 -11.097  1.00  0.00     0.060 C 
HETATM   16  C24 UNL     1       4.988  55.746 -10.045  1.00  0.00     0.020 C 
HETATM   17  C25 UNL     1       4.389  55.876  -8.611  1.00  0.00    -0.016 C 
HETATM   18  C26 UNL     1       3.556  57.190  -8.602  1.00  0.00     0.020 C 
HETATM   19  C27 UNL     1       5.514  55.962  -7.509  1.00  0.00     0.002 C 
HETATM   20  C28 UNL     1       6.619  54.878  -7.636  1.00  0.00     0.007 C 
HETATM   21  C29 UNL     1       7.781  55.011  -6.632  1.00  0.00     0.014 C 
HETATM   22  C30 UNL     1       7.364  55.563  -5.259  1.00  0.00     0.003 C 
HETATM   23  C31 UNL     1       7.700  57.079  -5.201  1.00  0.00     0.020 C 
ENDROOT
BRANCH   3  24
HETATM   24  O1  UNL     1       7.832  53.398  -4.178  1.00  0.00    -0.377 OA
HETATM   25  H2  UNL     1       8.631  53.091  -4.637  1.00  0.00     0.211 HD
ENDBRANCH   3  24
BRANCH  13  26
HETATM   26  O2  UNL     1       2.498  52.068 -11.218  1.00  0.00    -0.271 OA
BRANCH  26  27
HETATM   27  C13 UNL     1       1.532  51.548 -12.123  1.00  0.00     0.303 C 
BRANCH  27  28
HETATM   28  C14 UNL     1       2.038  51.403 -13.554  1.00  0.00     0.243 C 
HETATM   29  O3  UNL     1       3.209  51.134 -13.816  1.00  0.00    -0.271 OA
HETATM   30  N2  UNL     1       1.100  51.662 -14.528  1.00  0.00    -0.356 N 
HETATM   31  H16 UNL     1       0.137  51.712 -14.188  1.00  0.00     0.162 HD
BRANCH  30  32
HETATM   32  C15 UNL     1       1.340  51.420 -15.946  1.00  0.00     0.159 C 
BRANCH  32  33
HETATM   33  C16 UNL     1       1.283  52.693 -16.823  1.00  0.00     0.170 C 
BRANCH  33  34
HETATM   34  O4  UNL     1       2.570  53.303 -16.954  1.00  0.00    -0.389 OA
HETATM   35  H20 UNL     1       2.988  53.284 -16.064  1.00  0.00     0.210 HD
ENDBRANCH  33  34
BRANCH  33  36
HETATM   36  C17 UNL     1       0.785  52.380 -18.211  1.00  0.00    -0.013 A 
HETATM   37  C18 UNL     1       1.241  53.063 -19.341  1.00  0.00     0.013 A 
HETATM   38  C19 UNL     1       0.749  52.735 -20.600  1.00  0.00     0.025 A 
HETATM   39  C20 UNL     1      -0.195  51.721 -20.709  1.00  0.00     0.005 A 
HETATM   40  C21 UNL     1      -0.757  51.355 -22.052  1.00  0.00     0.068 C 
HETATM   41  N3  UNL     1      -0.635  51.023 -19.638  1.00  0.00    -0.369 N 
HETATM   42  C22 UNL     1      -0.145  51.370 -18.424  1.00  0.00     0.097 A 
ATOM     43  H3  UNL     1      -1.309  50.265 -19.741  1.00  0.00     0.165 HD
ENDBRANCH  33  36
ENDBRANCH  32  33
ENDBRANCH  30  32
ENDBRANCH  27  28
ENDBRANCH  26  27
ENDBRANCH  13  26
TORSDOF 8
ENDMDL
