MODEL 1
REMARK minimizedAffinity -7.80337334
REMARK CNNscore 0.623366356
REMARK CNNaffinity 6.9822917
REMARK  16 active torsions:
REMARK  status: ('A' for Active; 'I' for Inactive)
REMARK    1  A    between atoms: S1_2  and  C2_3 
REMARK    2  A    between atoms: C2_3  and  C3_4 
REMARK    3  A    between atoms: C3_4  and  C4_5 
REMARK    4  A    between atoms: C4_5  and  N1_6 
REMARK    5  A    between atoms: C4_5  and  C33_44 
REMARK       I    between atoms: N1_6  and  C5_7 
REMARK    6  A    between atoms: C5_7  and  C6_9 
REMARK    7  A    between atoms: C6_9  and  N2_11 
REMARK       I    between atoms: N2_11  and  C8_12 
REMARK    8  A    between atoms: C8_12  and  C9_14 
REMARK    9  A    between atoms: C9_14  and  C10_15 
REMARK   10  A    between atoms: C10_15  and  C11_16 
REMARK   11  A    between atoms: C11_16  and  O4_18 
REMARK   12  A    between atoms: O4_18  and  C12_19 
REMARK   13  A    between atoms: C12_19  and  C13_20 
REMARK   14  A    between atoms: C13_20  and  C14_22 
REMARK   15  A    between atoms: C14_22  and  O6_23 
REMARK   16  A    between atoms: C33_44  and  O10_46 
ROOT
HETATM    1  C12 UNL     1      -0.348  50.943 -16.912  1.00  0.00     0.260 C 
ENDROOT
BRANCH   1   2
HETATM    2  O4  UNL     1      -0.735  51.342 -15.601  1.00  0.00    -0.314 OA
BRANCH   2   3
HETATM    3  C11 UNL     1      -1.510  50.457 -14.923  1.00  0.00     0.259 C 
HETATM    4  O3  UNL     1      -1.353  49.244 -14.942  1.00  0.00    -0.265 OA
BRANCH   3   5
HETATM    5  C10 UNL     1      -2.641  51.158 -14.216  1.00  0.00     0.120 C 
BRANCH   5   6
HETATM    6  C9  UNL     1      -3.283  50.233 -13.189  1.00  0.00     0.112 C 
BRANCH   6   7
HETATM    7  C8  UNL     1      -3.448  50.927 -11.854  1.00  0.00     0.218 C 
HETATM    8  N2  UNL     1      -2.629  52.014 -11.684  1.00  0.00    -0.348 N 
HETATM    9  H14 UNL     1      -1.860  52.156 -12.329  1.00  0.00     0.163 HD
HETATM   10  O2  UNL     1      -4.212  50.531 -10.979  1.00  0.00    -0.274 OA
BRANCH   8  11
HETATM   11  C6  UNL     1      -2.620  52.792 -10.441  1.00  0.00     0.172 C 
HETATM   12  C7  UNL     1      -3.570  53.976 -10.563  1.00  0.00     0.042 C 
BRANCH  11  13
HETATM   13  C5  UNL     1      -1.190  53.260 -10.087  1.00  0.00     0.240 C 
HETATM   14  N1  UNL     1      -1.126  54.202  -9.080  1.00  0.00    -0.345 N 
HETATM   15  H9  UNL     1      -1.989  54.690  -8.842  1.00  0.00     0.163 HD
HETATM   16  O1  UNL     1      -0.192  52.908 -10.713  1.00  0.00    -0.271 OA
BRANCH  14  17
HETATM   17  C4  UNL     1       0.136  54.828  -8.693  1.00  0.00     0.183 C 
BRANCH  17  18
HETATM   18  C3  UNL     1       1.204  53.791  -8.311  1.00  0.00     0.046 C 
BRANCH  18  19
HETATM   19  C2  UNL     1       2.584  54.121  -8.883  1.00  0.00     0.076 C 
BRANCH  19  20
HETATM   20  S1  UNL     1       2.504  55.268 -10.302  1.00  0.00    -0.173 SA
HETATM   21  C1  UNL     1       4.225  55.817 -10.362  1.00  0.00     0.089 C 
ENDBRANCH  19  20
ENDBRANCH  18  19
ENDBRANCH  17  18
BRANCH  17  22
HETATM   22  C33 UNL     1      -0.115  55.808  -7.549  1.00  0.00     0.163 C 
HETATM   23  O9  UNL     1       0.134  55.618  -6.367  1.00  0.00    -0.648 OA
BRANCH  22  24
HETATM   24  O10 UNL     1      -0.637  56.981  -7.958  1.00  0.00    -0.775 OA
HETATM   25  H46 UNL     1      -0.766  57.494  -7.131  1.00  0.00     0.167 HD
ENDBRANCH  22  24
ENDBRANCH  17  22
ENDBRANCH  14  17
ENDBRANCH  11  13
ENDBRANCH   8  11
ENDBRANCH   6   7
ENDBRANCH   5   6
ENDBRANCH   3   5
ENDBRANCH   2   3
ENDBRANCH   1   2
BRANCH   1  26
HETATM   26  C13 UNL     1      -1.331  50.999 -18.088  1.00  0.00     0.185 C 
HETATM   27  O5  UNL     1      -2.406  51.594 -17.957  1.00  0.00    -0.292 OA
BRANCH  26  28
HETATM   28  C14 UNL     1      -0.958  50.318 -19.425  1.00  0.00     0.128 C 
HETATM   29  C15 UNL     1      -0.672  48.792 -19.349  1.00  0.00     0.047 C 
HETATM   30  C16 UNL     1      -1.145  48.170 -20.682  1.00  0.00     0.009 C 
HETATM   31  C17 UNL     1      -1.507  49.373 -21.538  1.00  0.00     0.002 C 
HETATM   32  C18 UNL     1      -2.293  49.173 -22.845  1.00  0.00     0.003 C 
HETATM   33  C31 UNL     1      -2.082  50.395 -20.514  1.00  0.00     0.005 C 
HETATM   34  C19 UNL     1      -3.553  48.290 -22.746  1.00  0.00     0.010 C 
HETATM   35  C28 UNL     1      -2.530  50.557 -23.527  1.00  0.00     0.072 C 
HETATM   36  C20 UNL     1      -4.687  48.725 -23.676  1.00  0.00     0.035 C 
HETATM   37  C21 UNL     1      -4.105  49.159 -24.990  1.00  0.00    -0.067 C 
HETATM   38  C22 UNL     1      -4.281  48.426 -26.102  1.00  0.00     0.053 C 
HETATM   39  C26 UNL     1      -3.238  50.416 -24.932  1.00  0.00    -0.009 C 
HETATM   40  C23 UNL     1      -3.607  48.768 -27.377  1.00  0.00     0.149 C 
HETATM   41  O7  UNL     1      -3.864  48.115 -28.385  1.00  0.00    -0.293 OA
HETATM   42  C24 UNL     1      -2.631  49.918 -27.402  1.00  0.00     0.084 C 
HETATM   43  C25 UNL     1      -2.117  50.266 -26.007  1.00  0.00     0.022 C 
HETATM   44  C27 UNL     1      -4.101  51.639 -25.306  1.00  0.00     0.021 C 
HETATM   45  C29 UNL     1      -3.113  51.517 -22.470  1.00  0.00     0.133 C 
HETATM   46  O8  UNL     1      -4.210  52.061 -22.560  1.00  0.00    -0.297 OA
HETATM   47  C30 UNL     1      -2.240  51.741 -21.239  1.00  0.00     0.091 C 
HETATM   48  C32 UNL     1      -3.451  49.999 -19.901  1.00  0.00     0.019 C 
BRANCH  28  49
HETATM   49  O6  UNL     1       0.218  50.957 -19.946  1.00  0.00    -0.381 OA
HETATM   50  H21 UNL     1       0.743  51.311 -19.195  1.00  0.00     0.211 HD
ENDBRANCH  28  49
ENDBRANCH  26  28
ENDBRANCH   1  26
TORSDOF 16
ENDMDL
