MODEL 1
REMARK minimizedAffinity -9.55137348
REMARK  6 active torsions:
REMARK  status: ('A' for Active; 'I' for Inactive)
REMARK    1  A    between atoms: C2_2  and  C30_32 
REMARK    2  A    between atoms: C3_3  and  C4_4 
REMARK    3  A    between atoms: C4_4  and  C5_6 
REMARK    4  A    between atoms: C5_6  and  C6_7 
REMARK    5  A    between atoms: C6_7  and  C8_9 
REMARK    6  A    between atoms: C30_32  and  O4_34 
ROOT
HETATM    1  C8  UNL     1      -6.278  48.867 -21.903  1.00  0.00    -0.001 C 
HETATM    2  C9  UNL     1      -7.073  49.901 -22.720  1.00  0.00     0.007 C 
HETATM    3  C10 UNL     1      -6.069  50.975 -23.180  1.00  0.00     0.015 C 
HETATM    4  C11 UNL     1      -4.698  50.617 -22.540  1.00  0.00    -0.013 C 
HETATM    5  C12 UNL     1      -4.662  51.350 -21.163  1.00  0.00     0.021 C 
HETATM    6  C13 UNL     1      -3.479  50.991 -23.421  1.00  0.00    -0.070 C 
HETATM    7  C14 UNL     1      -2.461  51.762 -23.002  1.00  0.00    -0.022 C 
HETATM    8  C15 UNL     1      -1.197  52.013 -23.755  1.00  0.00     0.034 C 
HETATM    9  C16 UNL     1      -0.945  51.147 -25.024  1.00  0.00     0.013 C 
HETATM   10  C17 UNL     1       0.190  51.818 -25.892  1.00  0.00     0.018 C 
HETATM   11  C18 UNL     1       0.775  50.887 -26.971  1.00  0.00     0.023 C 
HETATM   12  C19 UNL     1       1.389  52.236 -25.003  1.00  0.00     0.023 C 
HETATM   13  C20 UNL     1      -0.390  53.065 -26.580  1.00  0.00     0.135 C 
HETATM   14  O2  UNL     1       0.258  54.109 -26.690  1.00  0.00    -0.297 OA
HETATM   15  C21 UNL     1      -1.756  52.955 -27.230  1.00  0.00     0.080 C 
HETATM   16  C22 UNL     1      -2.787  52.244 -26.355  1.00  0.00     0.017 C 
HETATM   17  C23 UNL     1      -2.294  50.885 -25.773  1.00  0.00    -0.031 C 
HETATM   18  C24 UNL     1      -2.167  49.884 -26.948  1.00  0.00     0.016 C 
HETATM   19  C25 UNL     1      -3.388  50.308 -24.777  1.00  0.00     0.024 C 
HETATM   20  C26 UNL     1      -3.279  48.800 -24.468  1.00  0.00     0.010 C 
HETATM   21  C27 UNL     1      -4.541  48.327 -23.736  1.00  0.00     0.011 C 
HETATM   22  C28 UNL     1      -4.801  49.045 -22.384  1.00  0.00    -0.029 C 
HETATM   23  C29 UNL     1      -3.814  48.479 -21.341  1.00  0.00     0.016 C 
ENDROOT
BRANCH   1  24
HETATM   24  C6  UNL     1      -6.874  47.430 -21.834  1.00  0.00    -0.007 C 
HETATM   25  C7  UNL     1      -8.191  47.472 -21.033  1.00  0.00     0.011 C 
BRANCH  24  26
HETATM   26  C5  UNL     1      -7.151  46.744 -23.188  1.00  0.00     0.087 C 
BRANCH  26  27
HETATM   27  C4  UNL     1      -8.622  46.419 -23.410  1.00  0.00     0.150 C 
HETATM   28  O1  UNL     1      -9.136  45.364 -23.048  1.00  0.00    -0.293 OA
BRANCH  27  29
HETATM   29  C3  UNL     1      -9.407  47.445 -24.153  1.00  0.00     0.063 C 
HETATM   30  C2  UNL     1      -9.203  47.786 -25.439  1.00  0.00     0.015 C 
HETATM   31  C1  UNL     1      -8.221  47.171 -26.389  1.00  0.00     0.055 C 
BRANCH  30  32
HETATM   32  C30 UNL     1     -10.079  48.869 -25.942  1.00  0.00     0.171 C 
HETATM   33  O3  UNL     1     -11.248  48.758 -26.270  1.00  0.00    -0.646 OA
BRANCH  32  34
HETATM   34  O4  UNL     1      -9.452  50.054 -26.001  1.00  0.00    -0.773 OA
HETATM   35  H44 UNL     1     -10.139  50.672 -26.324  1.00  0.00     0.167 HD
ENDBRANCH  32  34
ENDBRANCH  30  32
ENDBRANCH  27  29
ENDBRANCH  26  27
ENDBRANCH  24  26
ENDBRANCH   1  24
TORSDOF 6
ENDMDL
