MODEL 1
REMARK minimizedAffinity -10.2257071
REMARK  7 active torsions:
REMARK  status: ('A' for Active; 'I' for Inactive)
REMARK    1  A    between atoms: C2_2  and  C3_3 
REMARK    2  A    between atoms: C2_2  and  C9_11 
REMARK    3  A    between atoms: C3_3  and  C4_4 
REMARK    4  A    between atoms: C5_5  and  C6_6 
REMARK    5  A    between atoms: C6_6  and  O1_9 
REMARK    6  A    between atoms: O1_9  and  O2_10 
REMARK    7  A    between atoms: C10_12  and  O3_13 
ROOT
HETATM    1  C9  UNL     1      -3.136   7.605  14.675  1.00  0.00     0.028 C 
HETATM    2  C10 UNL     1      -4.015   8.474  13.730  1.00  0.00     0.124 C 
HETATM    3  C11 UNL     1      -3.131   8.866  12.519  1.00  0.00     0.046 C 
HETATM    4  C12 UNL     1      -1.704   8.388  12.883  1.00  0.00    -0.010 C 
HETATM    5  C13 UNL     1      -1.040   9.547  13.692  1.00  0.00     0.021 C 
HETATM    6  C14 UNL     1      -0.726   8.078  11.754  1.00  0.00    -0.070 C 
HETATM    7  C15 UNL     1      -0.731   8.774  10.597  1.00  0.00    -0.022 C 
HETATM    8  C16 UNL     1       0.277   8.607   9.495  1.00  0.00     0.034 C 
HETATM    9  C17 UNL     1       1.182   7.383   9.710  1.00  0.00     0.013 C 
HETATM   10  C18 UNL     1       2.274   7.137   8.620  1.00  0.00     0.018 C 
HETATM   11  C19 UNL     1       1.625   7.065   7.222  1.00  0.00     0.023 C 
HETATM   12  C20 UNL     1       3.391   8.186   8.576  1.00  0.00     0.023 C 
HETATM   13  C21 UNL     1       2.923   5.768   8.894  1.00  0.00     0.135 C 
HETATM   14  O4  UNL     1       3.639   5.208   8.062  1.00  0.00    -0.297 OA
HETATM   15  C22 UNL     1       2.638   5.109  10.228  1.00  0.00     0.080 C 
HETATM   16  C23 UNL     1       2.723   6.146  11.339  1.00  0.00     0.017 C 
HETATM   17  C24 UNL     1       1.670   7.287  11.210  1.00  0.00    -0.031 C 
HETATM   18  C25 UNL     1       2.335   8.586  11.741  1.00  0.00     0.016 C 
HETATM   19  C26 UNL     1       0.349   7.003  12.042  1.00  0.00     0.024 C 
HETATM   20  C27 UNL     1       0.551   6.745  13.558  1.00  0.00     0.010 C 
HETATM   21  C28 UNL     1      -0.737   6.602  14.404  1.00  0.00     0.011 C 
HETATM   22  C29 UNL     1      -2.017   7.092  13.705  1.00  0.00    -0.026 C 
HETATM   23  C30 UNL     1      -2.593   5.927  12.838  1.00  0.00     0.016 C 
ENDROOT
BRANCH   1  24
HETATM   24  C2  UNL     1      -3.852   6.519  15.541  1.00  0.00    -0.008 C 
HETATM   25  C1  UNL     1      -3.312   5.090  15.405  1.00  0.00     0.011 C 
BRANCH  24  26
HETATM   26  C3  UNL     1      -5.392   6.525  15.344  1.00  0.00     0.031 C 
BRANCH  26  27
HETATM   27  C4  UNL     1      -5.890   5.819  14.114  1.00  0.00    -0.027 C 
HETATM   28  C5  UNL     1      -6.889   4.918  14.122  1.00  0.00     0.009 C 
BRANCH  28  29
HETATM   29  C6  UNL     1      -7.471   4.156  12.941  1.00  0.00     0.106 C 
HETATM   30  C7  UNL     1      -6.412   3.522  12.023  1.00  0.00     0.053 C 
HETATM   31  C8  UNL     1      -8.347   5.087  12.089  1.00  0.00     0.053 C 
BRANCH  29  32
HETATM   32  O1  UNL     1      -8.258   3.044  13.425  1.00  0.00    -0.229 OA
BRANCH  32  33
HETATM   33  O2  UNL     1      -7.935   1.865  12.622  1.00  0.00    -0.249 OA
HETATM   34  H15 UNL     1      -8.811   1.787  12.205  1.00  0.00     0.253 HD
ENDBRANCH  32  33
ENDBRANCH  29  32
ENDBRANCH  28  29
ENDBRANCH  26  27
ENDBRANCH  24  26
ENDBRANCH   1  24
BRANCH   2  35
HETATM   35  O3  UNL     1      -4.492   9.636  14.394  1.00  0.00    -0.395 OA
HETATM   36  H18 UNL     1      -3.733  10.201  14.616  1.00  0.00     0.210 HD
ENDBRANCH   2  35
TORSDOF 7
ENDMDL
