MODEL 1
REMARK minimizedAffinity -10.6798067
REMARK  4 active torsions:
REMARK  status: ('A' for Active; 'I' for Inactive)
REMARK    1  A    between atoms: C4_4  and  O1_5 
REMARK    2  A    between atoms: C4_4  and  C5_6 
REMARK    3  A    between atoms: C5_6  and  C6_7 
REMARK    4  A    between atoms: C6_7  and  C8_9 
ROOT
HETATM    1  C8  UNL     1      -0.813  50.771 -22.261  1.00  0.00    -0.001 C 
HETATM    2  C9  UNL     1      -0.992  50.837 -20.719  1.00  0.00     0.007 C 
HETATM    3  C10 UNL     1      -2.337  50.127 -20.399  1.00  0.00     0.015 C 
HETATM    4  C11 UNL     1      -2.744  49.439 -21.721  1.00  0.00    -0.013 C 
HETATM    5  C12 UNL     1      -1.957  48.081 -21.770  1.00  0.00     0.021 C 
HETATM    6  C13 UNL     1      -4.210  49.054 -21.959  1.00  0.00    -0.070 C 
HETATM    7  C14 UNL     1      -4.915  48.419 -21.004  1.00  0.00    -0.022 C 
HETATM    8  C15 UNL     1      -6.182  47.666 -21.272  1.00  0.00     0.034 C 
HETATM    9  C16 UNL     1      -6.282  47.260 -22.760  1.00  0.00     0.013 C 
HETATM   10  C17 UNL     1      -7.461  46.265 -23.057  1.00  0.00     0.018 C 
HETATM   11  C18 UNL     1      -7.097  44.875 -22.474  1.00  0.00     0.023 C 
HETATM   12  C19 UNL     1      -8.822  46.656 -22.459  1.00  0.00     0.023 C 
HETATM   13  C20 UNL     1      -7.649  46.096 -24.573  1.00  0.00     0.135 C 
HETATM   14  O2  UNL     1      -7.939  45.012 -25.083  1.00  0.00    -0.297 OA
HETATM   15  C21 UNL     1      -7.579  47.332 -25.433  1.00  0.00     0.080 C 
HETATM   16  C22 UNL     1      -6.296  48.097 -25.149  1.00  0.00     0.017 C 
HETATM   17  C23 UNL     1      -6.152  48.529 -23.671  1.00  0.00    -0.031 C 
HETATM   18  C24 UNL     1      -7.246  49.594 -23.367  1.00  0.00     0.016 C 
HETATM   19  C25 UNL     1      -4.754  49.251 -23.390  1.00  0.00     0.024 C 
HETATM   20  C26 UNL     1      -3.626  49.047 -24.428  1.00  0.00     0.010 C 
HETATM   21  C27 UNL     1      -2.366  49.923 -24.185  1.00  0.00     0.011 C 
HETATM   22  C28 UNL     1      -2.267  50.515 -22.762  1.00  0.00    -0.029 C 
HETATM   23  C29 UNL     1      -3.101  51.831 -22.661  1.00  0.00     0.016 C 
ENDROOT
BRANCH   1  24
HETATM   24  C6  UNL     1       0.111  51.846 -22.911  1.00  0.00    -0.008 C 
HETATM   25  C7  UNL     1       0.679  52.735 -21.789  1.00  0.00     0.010 C 
BRANCH  24  26
HETATM   26  C5  UNL     1      -0.506  52.696 -24.051  1.00  0.00     0.078 C 
BRANCH  26  27
HETATM   27  C4  UNL     1       0.467  53.221 -25.126  1.00  0.00     0.191 A 
HETATM   28  C3  UNL     1      -0.043  52.990 -26.497  1.00  0.00     0.054 A 
HETATM   29  C2  UNL     1       0.765  52.170 -27.168  1.00  0.00     0.015 A 
HETATM   30  C1  UNL     1       0.674  51.639 -28.542  1.00  0.00     0.054 C 
HETATM   31  C30 UNL     1       1.864  51.838 -26.255  1.00  0.00     0.291 A 
HETATM   32  O3  UNL     1       1.693  52.503 -25.082  1.00  0.00    -0.276 OA
HETATM   33  O4  UNL     1       2.791  51.093 -26.516  1.00  0.00    -0.260 OA
BRANCH  27  34
HETATM   34  O1  UNL     1       0.686  54.608 -24.957  1.00  0.00    -0.362 OA
HETATM   35  H5  UNL     1       1.159  54.919 -25.746  1.00  0.00     0.213 HD
ENDBRANCH  27  34
ENDBRANCH  26  27
ENDBRANCH  24  26
ENDBRANCH   1  24
TORSDOF 4
ENDMDL
