MODEL 1
REMARK minimizedAffinity -9.26380539
REMARK  9 active torsions:
REMARK  status: ('A' for Active; 'I' for Inactive)
REMARK    1  A    between atoms: C3_3  and  O1_4 
REMARK    2  A    between atoms: N1_14  and  O2_16 
REMARK    3  A    between atoms: O2_16  and  C13_17 
REMARK    4  A    between atoms: C13_17  and  C14_18 
REMARK       I    between atoms: C14_18  and  N2_20 
REMARK    5  A    between atoms: N2_20  and  C15_21 
REMARK    6  A    between atoms: C15_21  and  C16_22 
REMARK    7  A    between atoms: C15_21  and  C17_25 
REMARK    8  A    between atoms: C16_22  and  O5_24 
REMARK    9  A    between atoms: C17_25  and  C19_27 
ROOT
HETATM    1  C1  UNL     1       1.664  54.490 -22.890  1.00  0.00     0.015 C 
HETATM    2  C2  UNL     1       0.969  53.888 -23.663  1.00  0.00    -0.078 C 
HETATM    3  C3  UNL     1       0.109  53.164 -24.613  1.00  0.00     0.128 C 
HETATM    4  C4  UNL     1       0.930  52.385 -25.671  1.00  0.00     0.052 C 
HETATM    5  C5  UNL     1       0.126  51.104 -25.989  1.00  0.00     0.010 C 
HETATM    6  C6  UNL     1      -1.197  51.290 -25.252  1.00  0.00     0.002 C 
HETATM    7  C7  UNL     1      -2.063  50.055 -24.966  1.00  0.00    -0.004 C 
HETATM    8  C8  UNL     1      -2.413  49.311 -26.263  1.00  0.00     0.010 C 
HETATM    9  C9  UNL     1      -3.334  48.126 -25.995  1.00  0.00     0.035 C 
HETATM   10  C10 UNL     1      -4.579  48.549 -25.251  1.00  0.00    -0.069 C 
HETATM   11  C11 UNL     1      -5.789  48.258 -25.761  1.00  0.00     0.030 C 
HETATM   12  C12 UNL     1      -7.037  48.595 -25.023  1.00  0.00     0.032 C 
HETATM   13  N1  UNL     1      -8.242  48.565 -25.505  1.00  0.00    -0.271 N 
ATOM     14  H1  UNL     1      -9.083  48.746 -24.957  1.00  0.00     0.194 HD
HETATM   15  C21 UNL     1      -6.876  48.965 -23.567  1.00  0.00     0.060 C 
HETATM   16  C22 UNL     1      -5.703  49.920 -23.426  1.00  0.00     0.020 C 
HETATM   17  C23 UNL     1      -4.359  49.326 -23.944  1.00  0.00    -0.016 C 
HETATM   18  C24 UNL     1      -3.810  48.352 -22.877  1.00  0.00     0.020 C 
HETATM   19  C25 UNL     1      -3.363  50.514 -24.233  1.00  0.00     0.002 C 
HETATM   20  C26 UNL     1      -3.044  51.386 -22.989  1.00  0.00     0.007 C 
HETATM   21  C27 UNL     1      -2.089  52.553 -23.301  1.00  0.00     0.014 C 
HETATM   22  C28 UNL     1      -0.794  52.067 -23.974  1.00  0.00     0.003 C 
HETATM   23  C29 UNL     1       0.019  51.204 -22.966  1.00  0.00     0.020 C 
ENDROOT
BRANCH   3  24
HETATM   24  O1  UNL     1      -0.682  54.123 -25.317  1.00  0.00    -0.377 OA
HETATM   25  H2  UNL     1      -1.019  54.753 -24.658  1.00  0.00     0.211 HD
ENDBRANCH   3  24
BRANCH  13  26
HETATM   26  O2  UNL     1      -8.245  48.253 -26.875  1.00  0.00    -0.271 OA
BRANCH  26  27
HETATM   27  C13 UNL     1      -7.226  47.296 -27.150  1.00  0.00     0.303 C 
BRANCH  27  28
HETATM   28  C14 UNL     1      -7.095  46.959 -28.635  1.00  0.00     0.244 C 
HETATM   29  O3  UNL     1      -7.109  45.801 -29.047  1.00  0.00    -0.271 OA
HETATM   30  N2  UNL     1      -6.952  48.054 -29.457  1.00  0.00    -0.344 N 
HETATM   31  H16 UNL     1      -6.606  48.883 -28.972  1.00  0.00     0.163 HD
BRANCH  30  32
HETATM   32  C15 UNL     1      -6.614  47.914 -30.875  1.00  0.00     0.186 C 
BRANCH  32  33
HETATM   33  C16 UNL     1      -5.231  48.538 -31.129  1.00  0.00     0.163 C 
HETATM   34  O4  UNL     1      -4.446  48.230 -32.013  1.00  0.00    -0.648 OA
BRANCH  33  35
HETATM   35  O5  UNL     1      -4.938  49.582 -30.319  1.00  0.00    -0.775 OA
HETATM   36  H18 UNL     1      -4.041  49.854 -30.606  1.00  0.00     0.167 HD
ENDBRANCH  33  35
ENDBRANCH  32  33
BRANCH  32  37
HETATM   37  C17 UNL     1      -7.697  48.596 -31.749  1.00  0.00     0.014 C 
HETATM   38  C18 UNL     1      -8.744  49.312 -30.879  1.00  0.00     0.012 C 
BRANCH  37  39
HETATM   39  C19 UNL     1      -8.402  47.642 -32.740  1.00  0.00     0.002 C 
HETATM   40  C20 UNL     1      -7.629  47.347 -34.018  1.00  0.00     0.005 C 
ENDBRANCH  37  39
ENDBRANCH  32  37
ENDBRANCH  30  32
ENDBRANCH  27  28
ENDBRANCH  26  27
ENDBRANCH  13  26
TORSDOF 9
ENDMDL
