MODEL 1
REMARK minimizedAffinity -10.6616058
REMARK  7 active torsions:
REMARK  status: ('A' for Active; 'I' for Inactive)
REMARK    1  A    between atoms: C4_4  and  C5_5 
REMARK    2  A    between atoms: C5_5  and  C6_6 
REMARK    3  A    between atoms: C6_6  and  C7_7 
REMARK    4  A    between atoms: C7_7  and  C9_9 
REMARK    5  A    between atoms: C18_18  and  O1_19 
REMARK    6  A    between atoms: O1_19  and  C19_20 
REMARK    7  A    between atoms: C19_20  and  C20_22 
ROOT
HETATM    1  C9  UNL     1      -0.690  51.874 -25.438  1.00  0.00    -0.002 C 
HETATM    2  C10 UNL     1       0.210  53.138 -25.380  1.00  0.00     0.006 C 
HETATM    3  C11 UNL     1       0.593  53.368 -23.914  1.00  0.00     0.010 C 
HETATM    4  C12 UNL     1       0.108  52.111 -23.200  1.00  0.00     0.023 C 
HETATM    5  C13 UNL     1      -0.032  52.083 -21.697  1.00  0.00    -0.070 C 
HETATM    6  C14 UNL     1       0.455  53.037 -20.889  1.00  0.00     0.004 C 
HETATM    7  C15 UNL     1       0.519  52.869 -19.462  1.00  0.00     0.004 C 
HETATM    8  C16 UNL     1      -0.115  51.874 -18.819  1.00  0.00    -0.069 C 
HETATM    9  C17 UNL     1      -0.042  51.758 -17.313  1.00  0.00     0.067 C 
HETATM   10  C18 UNL     1       0.216  50.325 -16.842  1.00  0.00     0.136 C 
HETATM   11  C26 UNL     1      -0.811  49.372 -17.455  1.00  0.00     0.034 C 
HETATM   12  C27 UNL     1      -0.770  49.433 -18.980  1.00  0.00     0.017 C 
HETATM   13  C28 UNL     1      -0.983  50.858 -19.574  1.00  0.00    -0.013 C 
HETATM   14  C29 UNL     1      -2.452  51.295 -19.346  1.00  0.00     0.021 C 
HETATM   15  C30 UNL     1      -0.615  50.790 -21.127  1.00  0.00     0.027 C 
HETATM   16  C31 UNL     1      -1.771  50.219 -21.995  1.00  0.00     0.011 C 
HETATM   17  C32 UNL     1      -1.540  50.302 -23.511  1.00  0.00     0.011 C 
HETATM   18  C33 UNL     1      -1.189  51.737 -23.960  1.00  0.00    -0.033 C 
HETATM   19  C34 UNL     1      -2.354  52.714 -23.667  1.00  0.00     0.016 C 
ENDROOT
BRANCH  10  20
HETATM   20  O1  UNL     1       0.090  50.308 -15.406  1.00  0.00    -0.312 OA
BRANCH  20  21
HETATM   21  C19 UNL     1       0.597  51.385 -14.754  1.00  0.00     0.293 C 
HETATM   22  O2  UNL     1      -0.032  52.164 -14.056  1.00  0.00    -0.259 OA
BRANCH  21  23
HETATM   23  C20 UNL     1       2.062  51.500 -14.996  1.00  0.00     0.039 A 
HETATM   24  C21 UNL     1       2.914  50.616 -14.318  1.00  0.00     0.017 A 
HETATM   25  C22 UNL     1       4.295  50.682 -14.510  1.00  0.00     0.001 A 
HETATM   26  C23 UNL     1       4.834  51.632 -15.378  1.00  0.00     0.000 A 
HETATM   27  C24 UNL     1       3.993  52.517 -16.054  1.00  0.00     0.001 A 
HETATM   28  C25 UNL     1       2.610  52.453 -15.866  1.00  0.00     0.017 A 
ENDBRANCH  21  23
ENDBRANCH  20  21
ENDBRANCH  10  20
BRANCH   1  29
HETATM   29  C7  UNL     1      -1.729  51.929 -26.599  1.00  0.00    -0.014 C 
HETATM   30  C8  UNL     1      -3.151  52.199 -26.089  1.00  0.00     0.010 C 
BRANCH  29  31
HETATM   31  C6  UNL     1      -1.775  50.609 -27.423  1.00  0.00     0.008 C 
BRANCH  31  32
HETATM   32  C5  UNL     1      -2.258  49.379 -26.643  1.00  0.00     0.028 C 
BRANCH  32  33
HETATM   33  C4  UNL     1      -3.443  48.746 -27.322  1.00  0.00    -0.025 C 
HETATM   34  C2  UNL     1      -4.602  48.341 -26.766  1.00  0.00    -0.091 C 
HETATM   35  C1  UNL     1      -5.692  47.744 -27.619  1.00  0.00     0.042 C 
HETATM   36  C3  UNL     1      -4.942  48.419 -25.303  1.00  0.00     0.042 C 
ENDBRANCH  32  33
ENDBRANCH  31  32
ENDBRANCH  29  31
ENDBRANCH   1  29
TORSDOF 7
ENDMDL
