MODEL 1
REMARK minimizedAffinity -9.49269676
REMARK CNNscore 0.729743779
REMARK CNNaffinity 8.28692627
REMARK  13 active torsions:
REMARK  status: ('A' for Active; 'I' for Inactive)
REMARK    1  A    between atoms: C5_6  and  C6_7 
REMARK    2  A    between atoms: C5_6  and  C29_33 
REMARK    3  A    between atoms: C19_20  and  O2_21 
REMARK    4  A    between atoms: C28_31  and  O4_32 
REMARK    5  A    between atoms: C30_35  and  C31_36 
REMARK    6  A    between atoms: C31_36  and  O6_38 
REMARK    7  A    between atoms: C31_36  and  C33_39 
REMARK    8  A    between atoms: C33_39  and  C35_41 
REMARK    9  A    between atoms: C33_39  and  C36_43 
REMARK   10  A    between atoms: C35_41  and  O7_42 
REMARK   11  A    between atoms: C36_43  and  C37_44 
REMARK   12  A    between atoms: C37_44  and  C38_45 
REMARK   13  A    between atoms: C41_49  and  N2_50 
ROOT
HETATM    1  C1  UNL     1      -4.355  50.159  -9.782  1.00  0.00     0.010 C 
HETATM    2  C2  UNL     1      -3.442  50.740 -10.864  1.00  0.00    -0.014 C 
HETATM    3  C3  UNL     1      -4.073  51.976 -11.501  1.00  0.00     0.030 C 
HETATM    4  C4  UNL     1      -3.108  52.584 -12.505  1.00  0.00     0.169 C 
HETATM    5  O1  UNL     1      -1.870  52.934 -11.902  1.00  0.00    -0.377 OA
HETATM    6  C5  UNL     1      -1.148  51.863 -11.265  1.00  0.00     0.094 C 
HETATM    7  C43 UNL     1      -2.072  51.110 -10.283  1.00  0.00     0.045 C 
ENDROOT
BRANCH   6   8
HETATM    8  C6  UNL     1       0.060  52.522 -10.485  1.00  0.00     0.035 C 
HETATM    9  C7  UNL     1       1.159  53.127 -11.466  1.00  0.00     0.016 C 
HETATM   10  C8  UNL     1       1.661  54.418 -10.809  1.00  0.00     0.026 C 
HETATM   11  C9  UNL     1       3.115  54.832 -10.956  1.00  0.00     0.013 C 
HETATM   12  C28 UNL     1       1.329  54.175  -9.348  1.00  0.00     0.094 C 
HETATM   13  C10 UNL     1       3.378  56.098 -10.097  1.00  0.00     0.043 C 
HETATM   14  C11 UNL     1       2.636  56.159  -8.767  1.00  0.00    -0.006 C 
HETATM   15  C12 UNL     1       1.651  55.304  -8.436  1.00  0.00    -0.030 C 
HETATM   16  C22 UNL     1       3.161  57.092  -7.725  1.00  0.00     0.161 C 
HETATM   17  C13 UNL     1       1.045  55.194  -7.069  1.00  0.00     0.031 C 
HETATM   18  C14 UNL     1      -0.364  54.518  -7.012  1.00  0.00    -0.005 C 
HETATM   19  C23 UNL     1       1.051  56.530  -6.276  1.00  0.00    -0.022 C 
HETATM   20  C15 UNL     1      -0.720  54.191  -5.548  1.00  0.00     0.006 C 
HETATM   21  C25 UNL     1      -0.512  53.289  -7.955  1.00  0.00     0.018 C 
HETATM   22  C16 UNL     1      -0.558  55.402  -4.606  1.00  0.00     0.006 C 
HETATM   23  C17 UNL     1       0.810  56.080  -4.796  1.00  0.00    -0.003 C 
HETATM   24  C18 UNL     1       1.105  57.213  -3.818  1.00  0.00     0.037 C 
HETATM   25  C19 UNL     1       2.579  57.655  -3.924  1.00  0.00     0.119 C 
HETATM   26  C20 UNL     1       3.296  57.153  -5.191  1.00  0.00     0.045 C 
HETATM   27  C21 UNL     1       2.393  57.316  -6.422  1.00  0.00     0.072 C 
HETATM   28  C26 UNL     1      -0.137  53.680  -9.415  1.00  0.00    -0.002 C 
HETATM   29  C27 UNL     1      -1.130  54.758  -9.924  1.00  0.00     0.019 C 
HETATM   30  C24 UNL     1      -0.048  57.513  -6.780  1.00  0.00     0.017 C 
HETATM   31  O3  UNL     1       4.222  57.682  -7.935  1.00  0.00    -0.292 OA
BRANCH  25  32
HETATM   32  O2  UNL     1       2.603  59.082  -3.892  1.00  0.00    -0.396 OA
HETATM   33  H27 UNL     1       3.534  59.364  -3.927  1.00  0.00     0.210 HD
ENDBRANCH  25  32
BRANCH  12  34
HETATM   34  O4  UNL     1       2.152  53.084  -8.862  1.00  0.00    -0.384 OA
HETATM   35  H39 UNL     1       3.028  53.437  -8.630  1.00  0.00     0.211 HD
ENDBRANCH  12  34
ENDBRANCH   6   8
BRANCH   6  36
HETATM   36  C29 UNL     1      -0.554  50.969 -12.369  1.00  0.00     0.189 A 
HETATM   37  O5  UNL     1      -1.562  50.174 -13.024  1.00  0.00    -0.369 OA
HETATM   38  C30 UNL     1      -0.800  51.031 -13.885  1.00  0.00     0.189 A 
BRANCH  38  39
HETATM   39  C31 UNL     1      -0.014  50.222 -14.921  1.00  0.00     0.092 C 
HETATM   40  C32 UNL     1       0.262  48.831 -14.310  1.00  0.00     0.049 C 
BRANCH  39  41
HETATM   41  O6  UNL     1       1.285  50.828 -15.084  1.00  0.00    -0.387 OA
HETATM   42  H45 UNL     1       1.575  51.065 -14.177  1.00  0.00     0.210 HD
ENDBRANCH  39  41
BRANCH  39  43
HETATM   43  C33 UNL     1      -0.699  50.187 -16.349  1.00  0.00     0.011 C 
HETATM   44  C34 UNL     1      -1.959  51.091 -16.370  1.00  0.00     0.020 C 
BRANCH  43  45
HETATM   45  C35 UNL     1      -1.188  48.763 -16.735  1.00  0.00     0.176 C 
BRANCH  45  46
HETATM   46  O7  UNL     1      -0.892  48.447 -18.084  1.00  0.00    -0.400 OA
HETATM   47  H51 UNL     1      -1.728  48.206 -18.528  1.00  0.00     0.209 HD
ENDBRANCH  45  46
ENDBRANCH  43  45
BRANCH  43  48
HETATM   48  C36 UNL     1       0.259  50.673 -17.499  1.00  0.00     0.019 C 
BRANCH  48  49
HETATM   49  C37 UNL     1       0.125  52.138 -17.939  1.00  0.00     0.039 C 
BRANCH  49  50
HETATM   50  C38 UNL     1       0.304  52.298 -19.433  1.00  0.00    -0.053 A 
HETATM   51  C39 UNL     1      -0.164  51.323 -20.314  1.00  0.00     0.024 A 
HETATM   52  C40 UNL     1       0.010  51.504 -21.678  1.00  0.00     0.090 A 
HETATM   53  N1  UNL     1       0.615  52.610 -22.138  1.00  0.00    -0.353 N 
HETATM   54  C41 UNL     1       1.064  53.586 -21.338  1.00  0.00     0.098 A 
HETATM   55  H58 UNL     1       0.755  52.715 -23.138  1.00  0.00     0.166 HD
HETATM   56  C42 UNL     1       0.941  53.427 -19.958  1.00  0.00     0.055 A 
BRANCH  54  57
HETATM   57  N2  UNL     1       1.720  54.672 -21.890  1.00  0.00    -0.385 N 
HETATM   58  H59 UNL     1       1.586  55.552 -21.391  1.00  0.00     0.157 HD
HETATM   59  H60 UNL     1       1.742  54.807 -22.893  1.00  0.00     0.157 HD
ENDBRANCH  54  57
ENDBRANCH  49  50
ENDBRANCH  48  49
ENDBRANCH  43  48
ENDBRANCH  39  43
ENDBRANCH  38  39
ENDBRANCH   6  36
TORSDOF 13
ENDMDL
