MODEL 1
REMARK minimizedAffinity -8.62107086
REMARK CNNscore 0.700900733
REMARK CNNaffinity 6.99279404
REMARK  16 active torsions:
REMARK  status: ('A' for Active; 'I' for Inactive)
REMARK    1  A    between atoms: C2_2  and  C7_9 
REMARK    2  A    between atoms: C3_3  and  C4_4 
REMARK    3  A    between atoms: C4_4  and  C6_6 
REMARK    4  A    between atoms: C6_6  and  O2_8 
REMARK    5  A    between atoms: C7_9  and  C8_10 
REMARK    6  A    between atoms: C8_10  and  C9_11 
REMARK    7  A    between atoms: C9_11  and  O3_12 
REMARK    8  A    between atoms: C9_11  and  C10_13 
REMARK    9  A    between atoms: C10_13  and  C11_14 
REMARK   10  A    between atoms: C13_16  and  O4_17 
REMARK   11  A    between atoms: C17_23  and  C19_25 
REMARK   12  A    between atoms: C22_28  and  C24_30 
REMARK   13  A    between atoms: C25_32  and  C26_33 
REMARK   14  A    between atoms: C27_35  and  O9_36 
REMARK   15  A    between atoms: C27_35  and  C28_37 
REMARK   16  A    between atoms: C28_37  and  O10_38 
ROOT
HETATM    1  C11 UNL     1     -10.981  46.965 -22.136  1.00  0.00     0.130 C 
HETATM    2  C12 UNL     1     -10.819  46.210 -23.459  1.00  0.00     0.064 C 
HETATM    3  C13 UNL     1      -9.400  45.725 -23.679  1.00  0.00     0.129 C 
HETATM    4  C14 UNL     1      -8.417  46.842 -23.325  1.00  0.00     0.073 C 
HETATM    5  C15 UNL     1      -8.589  48.074 -24.238  1.00  0.00     0.018 C 
HETATM    6  C16 UNL     1      -8.546  47.162 -21.807  1.00  0.00     0.174 C 
HETATM    7  O5  UNL     1      -9.848  46.894 -21.277  1.00  0.00    -0.349 OA
HETATM    8  O6  UNL     1      -8.179  48.541 -21.595  1.00  0.00    -0.341 OA
HETATM    9  C17 UNL     1      -7.369  48.675 -20.417  1.00  0.00     0.087 C 
HETATM   10  C18 UNL     1      -8.296  48.976 -19.236  1.00  0.00     0.049 C 
HETATM   11  C37 UNL     1      -6.671  47.321 -20.251  1.00  0.00     0.050 C 
HETATM   12  C38 UNL     1      -7.546  46.309 -20.969  1.00  0.00     0.047 C 
HETATM   13  C39 UNL     1      -8.159  45.303 -19.982  1.00  0.00     0.015 C 
ENDROOT
BRANCH   9  14
HETATM   14  C19 UNL     1      -6.292  49.785 -20.564  1.00  0.00     0.157 C 
HETATM   15  C20 UNL     1      -5.033  49.610 -19.735  1.00  0.00     0.038 C 
HETATM   16  C21 UNL     1      -4.151  50.694 -20.322  1.00  0.00     0.043 C 
HETATM   17  C22 UNL     1      -4.560  50.729 -21.811  1.00  0.00     0.084 C 
HETATM   18  C23 UNL     1      -4.900  52.180 -22.189  1.00  0.00     0.049 C 
HETATM   19  O11 UNL     1      -5.777  49.947 -21.902  1.00  0.00    -0.370 OA
BRANCH  17  20
HETATM   20  C24 UNL     1      -3.442  50.102 -22.681  1.00  0.00     0.160 C 
HETATM   21  O7  UNL     1      -2.646  51.135 -23.313  1.00  0.00    -0.375 OA
HETATM   22  C25 UNL     1      -2.443  50.789 -24.700  1.00  0.00     0.152 C 
HETATM   23  C34 UNL     1      -2.643  49.277 -24.767  1.00  0.00     0.041 C 
HETATM   24  C35 UNL     1      -3.772  49.055 -23.766  1.00  0.00     0.016 C 
HETATM   25  C36 UNL     1      -5.115  49.135 -24.469  1.00  0.00     0.012 C 
BRANCH  22  26
HETATM   26  C26 UNL     1      -1.091  51.320 -25.233  1.00  0.00     0.158 C 
HETATM   27  O8  UNL     1      -1.309  52.059 -26.434  1.00  0.00    -0.345 OA
HETATM   28  C27 UNL     1      -0.128  52.390 -27.170  1.00  0.00     0.187 C 
HETATM   29  C29 UNL     1       1.046  52.825 -26.250  1.00  0.00     0.046 C 
HETATM   30  C30 UNL     1       2.147  51.768 -26.098  1.00  0.00     0.015 C 
HETATM   31  C31 UNL     1       0.508  53.281 -24.887  1.00  0.00     0.016 C 
HETATM   32  C32 UNL     1      -0.409  52.250 -24.206  1.00  0.00     0.014 C 
HETATM   33  C33 UNL     1       0.339  51.460 -23.125  1.00  0.00     0.012 C 
BRANCH  28  34
HETATM   34  O9  UNL     1       0.237  51.277 -27.973  1.00  0.00    -0.363 OA
HETATM   35  H41 UNL     1      -0.515  51.205 -28.594  1.00  0.00     0.213 HD
ENDBRANCH  28  34
BRANCH  28  36
HETATM   36  C28 UNL     1      -0.527  53.542 -28.134  1.00  0.00     0.232 C 
BRANCH  36  37
HETATM   37  O10 UNL     1      -1.957  53.723 -28.136  1.00  0.00    -0.396 OA
HETATM   38  H44 UNL     1      -2.127  54.618 -28.482  1.00  0.00     0.209 HD
ENDBRANCH  36  37
ENDBRANCH  28  36
ENDBRANCH  22  26
ENDBRANCH  17  20
ENDBRANCH   9  14
BRANCH   3  39
HETATM   39  O4  UNL     1      -9.253  45.316 -25.037  1.00  0.00    -0.395 OA
HETATM   40  H22 UNL     1      -8.354  44.956 -25.137  1.00  0.00     0.210 HD
ENDBRANCH   3  39
BRANCH   1  41
HETATM   41  C10 UNL     1     -12.210  46.452 -21.340  1.00  0.00     0.063 C 
BRANCH  41  42
HETATM   42  C9  UNL     1     -13.546  47.136 -21.680  1.00  0.00     0.120 C 
BRANCH  42  43
HETATM   43  C8  UNL     1     -14.714  46.155 -21.885  1.00  0.00     0.036 C 
BRANCH  43  44
HETATM   44  C7  UNL     1     -15.931  46.723 -22.633  1.00  0.00     0.036 C 
BRANCH  44  45
HETATM   45  C2  UNL     1     -17.269  46.104 -22.304  1.00  0.00    -0.087 C 
HETATM   46  C1  UNL     1     -17.884  45.258 -23.382  1.00  0.00     0.043 C 
HETATM   47  C3  UNL     1     -17.797  46.273 -21.072  1.00  0.00    -0.010 C 
BRANCH  47  48
HETATM   48  C4  UNL     1     -19.088  45.772 -20.464  1.00  0.00     0.102 C 
HETATM   49  C5  UNL     1     -19.102  44.325 -19.968  1.00  0.00     0.025 C 
BRANCH  48  50
HETATM   50  C6  UNL     1     -19.508  46.732 -19.361  1.00  0.00     0.147 C 
HETATM   51  O1  UNL     1     -19.268  47.924 -19.265  1.00  0.00    -0.650 OA
BRANCH  50  52
HETATM   52  O2  UNL     1     -20.264  46.134 -18.408  1.00  0.00    -0.776 OA
HETATM   53  H9  UNL     1     -20.494  46.873 -17.808  1.00  0.00     0.167 HD
ENDBRANCH  50  52
ENDBRANCH  48  50
ENDBRANCH  47  48
ENDBRANCH  44  45
ENDBRANCH  43  44
ENDBRANCH  42  43
BRANCH  42  54
HETATM   54  O3  UNL     1     -13.919  48.004 -20.608  1.00  0.00    -0.395 OA
HETATM   55  H15 UNL     1     -14.715  48.483 -20.890  1.00  0.00     0.210 HD
ENDBRANCH  42  54
ENDBRANCH  41  42
ENDBRANCH   1  41
TORSDOF 16
ENDMDL
