MODEL 1
REMARK minimizedAffinity -6.21631479
REMARK CNNscore 0.197015569
REMARK CNNaffinity 4.89610291
REMARK  10 active torsions:
REMARK  status: ('A' for Active; 'I' for Inactive)
REMARK    1  A    between atoms: O1_2  and  C2_3 
REMARK    2  A    between atoms: C11_15  and  O3_16 
REMARK    3  A    between atoms: O3_16  and  C12_17 
REMARK    4  A    between atoms: C12_17  and  C13_19 
REMARK    5  A    between atoms: C13_19  and  C14_20 
REMARK    6  A    between atoms: C24_31  and  O6_32 
REMARK    7  A    between atoms: C25_35  and  O7_36 
REMARK    8  A    between atoms: C26_38  and  O9_39 
REMARK    9  A    between atoms: C31_44  and  C32_45 
REMARK   10  A    between atoms: C32_45  and  O10_46 
ROOT
HETATM    1  C2  UNL     1      -3.983  13.444  19.419  1.00  0.00     0.092 A 
HETATM    2  C3  UNL     1      -4.043  12.112  18.995  1.00  0.00     0.046 A 
HETATM    3  C4  UNL     1      -3.010  11.554  18.226  1.00  0.00    -0.049 A 
HETATM    4  C5  UNL     1      -1.910  12.351  17.872  1.00  0.00     0.039 A 
HETATM    5  C6  UNL     1      -1.838  13.696  18.260  1.00  0.00     0.061 A 
HETATM    6  C7  UNL     1      -2.875  14.235  19.052  1.00  0.00     0.094 A 
HETATM    7 CL1  UNL     1      -2.754  15.854  19.692  1.00  0.00    -0.079 Cl
HETATM    8  N1  UNL     1      -0.717  14.480  17.821  1.00  0.00    -0.321 N 
HETATM    9  C8  UNL     1      -1.032  15.639  16.995  1.00  0.00     0.159 C 
HETATM   10  C9  UNL     1       0.577  14.035  18.096  1.00  0.00     0.226 C 
HETATM   11  O2  UNL     1       0.795  12.995  18.730  1.00  0.00    -0.273 OA
HETATM   12  C10 UNL     1       1.763  14.927  17.739  1.00  0.00     0.139 C 
HETATM   13  C11 UNL     1       2.409  14.818  16.356  1.00  0.00     0.177 C 
HETATM   14  C17 UNL     1       2.914  13.465  15.860  1.00  0.00     0.111 A 
HETATM   15  C18 UNL     1       3.658  13.524  14.553  1.00  0.00     0.051 C 
HETATM   16  O5  UNL     1       1.971  12.393  15.926  1.00  0.00    -0.366 OA
HETATM   17  C19 UNL     1       3.086  12.279  16.819  1.00  0.00     0.165 A 
HETATM   18  C20 UNL     1       4.011  11.100  16.648  1.00  0.00     0.043 C 
HETATM   19  C21 UNL     1       5.466  11.582  16.541  1.00  0.00     0.015 C 
HETATM   20  C22 UNL     1       3.659  10.046  15.569  1.00  0.00     0.143 C 
HETATM   21  C23 UNL     1       2.310   9.365  15.801  1.00  0.00     0.097 C 
HETATM   22  C24 UNL     1       2.199   8.164  14.857  1.00  0.00     0.166 C 
HETATM   23  N2  UNL     1       3.300   7.234  15.117  1.00  0.00    -0.316 N 
ATOM     24  H2  UNL     1       3.180   6.223  15.069  1.00  0.00     0.166 HD
HETATM   25  C25 UNL     1       4.419   7.772  15.407  1.00  0.00     0.260 C 
HETATM   26  O8  UNL     1       4.721   9.061  15.597  1.00  0.00    -0.311 OA
HETATM   27  C26 UNL     1       0.855   7.376  15.103  1.00  0.00     0.199 C 
HETATM   28  C28 UNL     1      -0.388   8.187  14.834  1.00  0.00     0.010 C 
HETATM   29  C29 UNL     1      -1.246   8.620  15.772  1.00  0.00    -0.001 C 
HETATM   30  C30 UNL     1      -2.446   9.350  15.425  1.00  0.00     0.005 C 
HETATM   31  C31 UNL     1      -3.296   9.981  16.263  1.00  0.00    -0.052 C 
HETATM   32  C33 UNL     1      -3.093  10.114  17.762  1.00  0.00     0.075 C 
ENDROOT
BRANCH  13  33
HETATM   33  O3  UNL     1       1.562  15.391  15.337  1.00  0.00    -0.312 OA
BRANCH  33  34
HETATM   34  C12 UNL     1       1.933  16.610  14.852  1.00  0.00     0.259 C 
HETATM   35  O4  UNL     1       2.716  17.368  15.403  1.00  0.00    -0.265 OA
BRANCH  34  36
HETATM   36  C13 UNL     1       1.220  16.871  13.543  1.00  0.00     0.115 C 
BRANCH  36  37
HETATM   37  C14 UNL     1       0.852  15.586  12.785  1.00  0.00    -0.013 C 
HETATM   38  C15 UNL     1       1.589  15.489  11.446  1.00  0.00     0.010 C 
HETATM   39  C16 UNL     1      -0.659  15.536  12.541  1.00  0.00     0.010 C 
ENDBRANCH  36  37
ENDBRANCH  34  36
ENDBRANCH  33  34
ENDBRANCH  13  33
BRANCH   1  40
HETATM   40  O1  UNL     1      -4.949  14.052  20.182  1.00  0.00    -0.354 OA
HETATM   41  C1  UNL     1      -5.494  13.325  21.275  1.00  0.00     0.210 C 
ENDBRANCH   1  40
BRANCH  22  42
HETATM   42  O6  UNL     1       2.205   8.620  13.502  1.00  0.00    -0.368 OA
HETATM   43  H32 UNL     1       2.030   7.804  12.994  1.00  0.00     0.212 HD
ENDBRANCH  22  42
BRANCH  25  44
HETATM   44  O7  UNL     1       5.492   6.994  15.589  1.00  0.00    -0.327 OA
HETATM   45  H33 UNL     1       5.209   6.083  15.414  1.00  0.00     0.221 HD
ENDBRANCH  25  44
BRANCH  27  46
HETATM   46  O9  UNL     1       0.800   6.283  14.155  1.00  0.00    -0.382 OA
HETATM   47  C27 UNL     1      -0.472   5.649  14.143  1.00  0.00     0.202 C 
ENDBRANCH  27  46
BRANCH  31  48
HETATM   48  C32 UNL     1      -4.560  10.649  15.756  1.00  0.00     0.198 C 
BRANCH  48  49
HETATM   49  O10 UNL     1      -5.494   9.710  15.237  1.00  0.00    -0.397 OA
HETATM   50  H43 UNL     1      -5.671   9.071  15.948  1.00  0.00     0.209 HD
ENDBRANCH  48  49
ENDBRANCH  31  48
TORSDOF 10
ENDMDL
