MODEL 1
REMARK minimizedAffinity -7.4320817
REMARK CNNscore 0.787610471
REMARK CNNaffinity 7.0450902
REMARK  6 active torsions:
REMARK  status: ('A' for Active; 'I' for Inactive)
REMARK    1  A    between atoms: C2_2  and  C30_32 
REMARK    2  A    between atoms: C3_3  and  C4_4 
REMARK    3  A    between atoms: C4_4  and  C5_6 
REMARK    4  A    between atoms: C5_6  and  C6_7 
REMARK    5  A    between atoms: C6_7  and  C8_9 
REMARK    6  A    between atoms: C30_32  and  O4_34 
ROOT
HETATM    1  C8  UNL     1       4.734  55.701  -8.371  1.00  0.00    -0.001 C 
HETATM    2  C9  UNL     1       3.762  56.603  -7.616  1.00  0.00     0.007 C 
HETATM    3  C10 UNL     1       2.469  56.599  -8.434  1.00  0.00     0.015 C 
HETATM    4  C11 UNL     1       2.612  55.533  -9.567  1.00  0.00    -0.013 C 
HETATM    5  C12 UNL     1       2.941  56.257 -10.902  1.00  0.00     0.021 C 
HETATM    6  C13 UNL     1       1.277  54.785  -9.765  1.00  0.00    -0.070 C 
HETATM    7  C14 UNL     1       0.132  55.464  -9.965  1.00  0.00    -0.022 C 
HETATM    8  C15 UNL     1      -1.180  54.849 -10.322  1.00  0.00     0.034 C 
HETATM    9  C16 UNL     1      -1.091  53.382 -10.809  1.00  0.00     0.013 C 
HETATM   10  C17 UNL     1      -2.513  52.728 -11.006  1.00  0.00     0.018 C 
HETATM   11  C18 UNL     1      -3.653  53.747 -11.220  1.00  0.00     0.023 C 
HETATM   12  C19 UNL     1      -2.514  51.817 -12.255  1.00  0.00     0.023 C 
HETATM   13  C20 UNL     1      -2.890  51.905  -9.769  1.00  0.00     0.135 C 
HETATM   14  O2  UNL     1      -3.700  50.979  -9.823  1.00  0.00    -0.297 OA
HETATM   15  C21 UNL     1      -2.312  52.341  -8.442  1.00  0.00     0.080 C 
HETATM   16  C22 UNL     1      -0.789  52.474  -8.455  1.00  0.00     0.017 C 
HETATM   17  C23 UNL     1      -0.134  52.568  -9.864  1.00  0.00    -0.031 C 
HETATM   18  C24 UNL     1       0.100  51.124 -10.383  1.00  0.00     0.016 C 
HETATM   19  C25 UNL     1       1.297  53.269  -9.828  1.00  0.00     0.024 C 
HETATM   20  C26 UNL     1       2.240  52.633  -8.777  1.00  0.00     0.010 C 
HETATM   21  C27 UNL     1       3.241  53.577  -8.111  1.00  0.00     0.011 C 
HETATM   22  C28 UNL     1       3.815  54.638  -9.065  1.00  0.00    -0.029 C 
HETATM   23  C29 UNL     1       4.611  53.937 -10.186  1.00  0.00     0.016 C 
ENDROOT
BRANCH   1  24
HETATM   24  C6  UNL     1       6.043  55.294  -7.633  1.00  0.00    -0.007 C 
HETATM   25  C7  UNL     1       7.205  55.216  -8.643  1.00  0.00     0.011 C 
BRANCH  24  26
HETATM   26  C5  UNL     1       6.499  56.028  -6.362  1.00  0.00     0.087 C 
BRANCH  26  27
HETATM   27  C4  UNL     1       7.654  55.441  -5.572  1.00  0.00     0.150 C 
HETATM   28  O1  UNL     1       7.557  54.353  -5.011  1.00  0.00    -0.293 OA
BRANCH  27  29
HETATM   29  C3  UNL     1       8.932  56.210  -5.556  1.00  0.00     0.063 C 
HETATM   30  C2  UNL     1       9.134  57.348  -4.864  1.00  0.00     0.015 C 
HETATM   31  C1  UNL     1       8.108  58.073  -4.040  1.00  0.00     0.055 C 
BRANCH  30  32
HETATM   32  C30 UNL     1      10.470  57.991  -4.897  1.00  0.00     0.171 C 
HETATM   33  O3  UNL     1      11.526  57.451  -4.621  1.00  0.00    -0.646 OA
BRANCH  32  34
HETATM   34  O4  UNL     1      10.445  59.283  -5.267  1.00  0.00    -0.773 OA
HETATM   35  H44 UNL     1      11.390  59.542  -5.239  1.00  0.00     0.167 HD
ENDBRANCH  32  34
ENDBRANCH  30  32
ENDBRANCH  27  29
ENDBRANCH  26  27
ENDBRANCH  24  26
ENDBRANCH   1  24
TORSDOF 6
ENDMDL
