MODEL 1
REMARK minimizedAffinity -8.74992085
REMARK  13 active torsions:
REMARK  status: ('A' for Active; 'I' for Inactive)
REMARK    1  A    between atoms: C2_2  and  C3_3 
REMARK    2  A    between atoms: C4_5  and  C5_6 
REMARK    3  A    between atoms: C5_6  and  C6_7 
REMARK    4  A    between atoms: C6_7  and  C7_8 
REMARK    5  A    between atoms: C7_8  and  C9_10 
REMARK    6  A    between atoms: C17_18  and  C18_19 
REMARK    7  A    between atoms: C18_19  and  O2_21 
REMARK    8  A    between atoms: C18_19  and  C20_22 
REMARK    9  A    between atoms: C20_22  and  O3_23 
REMARK   10  A    between atoms: C21_24  and  C22_25 
REMARK   11  A    between atoms: C22_25  and  C23_26 
REMARK   12  A    between atoms: C23_26  and  C24_27 
REMARK   13  A    between atoms: C24_27  and  O5_29 
ROOT
HETATM    1  C9  UNL     1      -2.298   7.598  13.745  1.00  0.00    -0.002 C 
HETATM    2  C10 UNL     1      -1.997   9.103  13.835  1.00  0.00     0.006 C 
HETATM    3  C11 UNL     1      -0.485   9.221  14.130  1.00  0.00     0.011 C 
HETATM    4  C12 UNL     1       0.085   7.773  14.150  1.00  0.00    -0.032 C 
HETATM    5  C13 UNL     1       0.052   7.294  15.641  1.00  0.00     0.016 C 
HETATM    6  C14 UNL     1       1.570   7.609  13.682  1.00  0.00     0.004 C 
HETATM    7  C15 UNL     1       2.515   8.691  14.197  1.00  0.00     0.007 C 
HETATM    8  C16 UNL     1       3.941   8.192  14.013  1.00  0.00     0.009 C 
HETATM    9  C17 UNL     1       4.371   8.062  12.536  1.00  0.00     0.031 C 
HETATM   10  C21 UNL     1       3.242   7.537  11.570  1.00  0.00    -0.025 A 
HETATM   11  C25 UNL     1       2.531   6.211  11.768  1.00  0.00     0.021 A 
HETATM   12  C26 UNL     1       1.788   7.455  12.178  1.00  0.00    -0.027 A 
HETATM   13  C27 UNL     1       0.637   7.973  11.368  1.00  0.00     0.011 C 
HETATM   14  C28 UNL     1      -0.687   7.313  11.726  1.00  0.00     0.011 C 
HETATM   15  C29 UNL     1      -0.942   7.004  13.231  1.00  0.00    -0.032 C 
HETATM   16  C30 UNL     1      -0.916   5.479  13.432  1.00  0.00     0.016 C 
ENDROOT
BRANCH   1  17
HETATM   17  C7  UNL     1      -3.665   7.183  13.126  1.00  0.00    -0.014 C 
HETATM   18  C8  UNL     1      -4.810   8.190  13.248  1.00  0.00     0.010 C 
BRANCH  17  19
HETATM   19  C6  UNL     1      -4.175   5.823  13.679  1.00  0.00     0.008 C 
BRANCH  19  20
HETATM   20  C5  UNL     1      -4.503   4.783  12.601  1.00  0.00     0.028 C 
BRANCH  20  21
HETATM   21  C4  UNL     1      -5.825   4.117  12.878  1.00  0.00    -0.017 C 
HETATM   22  C2  UNL     1      -6.273   2.961  12.356  1.00  0.00    -0.028 C 
HETATM   23  C1  UNL     1      -5.583   2.079  11.362  1.00  0.00     0.051 C 
BRANCH  22  24
HETATM   24  C3  UNL     1      -7.619   2.495  12.800  1.00  0.00     0.265 C 
HETATM   25  O1  UNL     1      -8.591   3.240  12.857  1.00  0.00    -0.302 OA
ENDBRANCH  22  24
ENDBRANCH  20  21
ENDBRANCH  19  20
ENDBRANCH  17  19
ENDBRANCH   1  17
BRANCH  10  26
HETATM   26  C22 UNL     1       3.416   8.083  10.128  1.00  0.00     0.021 C 
BRANCH  26  27
HETATM   27  C23 UNL     1       3.088   7.177   8.940  1.00  0.00     0.111 C 
BRANCH  27  28
HETATM   28  C24 UNL     1       2.568   7.851   7.703  1.00  0.00     0.139 C 
HETATM   29  O4  UNL     1       1.694   7.410   6.975  1.00  0.00    -0.650 OA
BRANCH  28  30
HETATM   30  O5  UNL     1       3.069   9.079   7.489  1.00  0.00    -0.776 OA
HETATM   31  H39 UNL     1       2.600   9.365   6.674  1.00  0.00     0.167 HD
ENDBRANCH  28  30
ENDBRANCH  27  28
ENDBRANCH  26  27
ENDBRANCH  10  26
BRANCH   9  32
HETATM   32  C18 UNL     1       5.784   7.368  12.419  1.00  0.00     0.080 C 
HETATM   33  C19 UNL     1       5.823   6.357  11.255  1.00  0.00     0.048 C 
BRANCH  32  34
HETATM   34  O2  UNL     1       6.050   6.589  13.604  1.00  0.00    -0.388 OA
HETATM   35  H31 UNL     1       5.362   5.905  13.673  1.00  0.00     0.210 HD
ENDBRANCH  32  34
BRANCH  32  36
HETATM   36  C20 UNL     1       6.979   8.332  12.261  1.00  0.00     0.201 C 
BRANCH  36  37
HETATM   37  O3  UNL     1       8.198   7.667  12.583  1.00  0.00    -0.398 OA
HETATM   38  H34 UNL     1       8.011   6.728  12.362  1.00  0.00     0.209 HD
ENDBRANCH  36  37
ENDBRANCH  32  36
ENDBRANCH   9  32
TORSDOF 13
ENDMDL
