MODEL 1
REMARK minimizedAffinity -7.20962477
REMARK CNNscore 0.143750325
REMARK CNNaffinity 6.90854788
REMARK  9 active torsions:
REMARK  status: ('A' for Active; 'I' for Inactive)
REMARK    1  A    between atoms: C13_13  and  S1_14 
REMARK    2  A    between atoms: C22_26  and  C23_27 
REMARK    3  A    between atoms: C23_27  and  O4_28 
REMARK    4  A    between atoms: C29_34  and  O5_35 
REMARK    5  A    between atoms: C41_48  and  C42_49 
REMARK    6  A    between atoms: C41_48  and  N1_57 
REMARK    7  A    between atoms: C42_49  and  C43_50 
REMARK    8  A    between atoms: C43_50  and  C44_51 
REMARK    9  A    between atoms: C44_51  and  O7_52 
REMARK       I    between atoms: C49_59  and  N2_60 
REMARK       I    between atoms: C49_59  and  N3_61 
ROOT
HETATM    1  C1  UNL     1       2.379  14.624  19.377  1.00  0.00     0.010 C 
HETATM    2  C2  UNL     1       1.892  13.374  18.649  1.00  0.00    -0.010 C 
HETATM    3  C3  UNL     1       2.820  13.146  17.420  1.00  0.00     0.009 C 
HETATM    4  C4  UNL     1       2.129  12.586  16.175  1.00  0.00     0.039 C 
HETATM    5  C5  UNL     1       1.053  11.608  16.548  1.00  0.00    -0.049 C 
HETATM    6  C6  UNL     1       0.816  10.473  15.770  1.00  0.00     0.044 C 
HETATM    7  C7  UNL     1      -0.254   9.645  16.090  1.00  0.00     0.072 C 
HETATM    8  C8  UNL     1      -0.915   9.794  17.304  1.00  0.00     0.037 C 
HETATM    9  C9  UNL     1      -0.699  10.946  18.068  1.00  0.00     0.011 C 
HETATM   10  C10 UNL     1       0.209  11.920  17.640  1.00  0.00    -0.047 C 
HETATM   11  C11 UNL     1       0.380  13.332  18.240  1.00  0.00     0.024 C 
HETATM   12  C12 UNL     1      -0.634  13.751  19.338  1.00  0.00     0.033 C 
HETATM   13  C13 UNL     1      -1.640  14.920  19.048  1.00  0.00     0.139 C 
HETATM   14  C14 UNL     1      -2.860  14.607  18.104  1.00  0.00     0.038 C 
HETATM   15  C15 UNL     1      -4.072  15.456  18.484  1.00  0.00    -0.014 C 
HETATM   16  C16 UNL     1      -4.489  16.477  17.707  1.00  0.00    -0.050 C 
HETATM   17  C17 UNL     1      -3.695  16.819  16.480  1.00  0.00     0.042 C 
HETATM   18  C18 UNL     1      -3.648  15.513  15.710  1.00  0.00     0.001 C 
HETATM   19  C19 UNL     1      -5.101  14.956  15.436  1.00  0.00     0.037 C 
HETATM   20  C20 UNL     1      -6.273  15.975  15.540  1.00  0.00     0.123 C 
HETATM   21  C21 UNL     1      -7.548  15.501  14.792  1.00  0.00     0.039 C 
HETATM   22  C22 UNL     1      -8.567  14.533  15.461  1.00  0.00     0.023 C 
HETATM   23  C24 UNL     1      -9.718  15.234  16.239  1.00  0.00     0.101 C 
HETATM   24  C25 UNL     1      -9.298  15.904  17.475  1.00  0.00    -0.101 C 
HETATM   25  C26 UNL     1      -8.757  16.433  18.409  1.00  0.00    -0.066 C 
HETATM   26  C27 UNL     1      -7.875  17.008  19.383  1.00  0.00     0.029 A 
HETATM   27  C28 UNL     1      -8.394  17.280  20.655  1.00  0.00     0.057 A 
HETATM   28  C29 UNL     1      -7.582  17.837  21.636  1.00  0.00     0.067 A 
HETATM   29  C30 UNL     1      -6.255  18.142  21.370  1.00  0.00     0.037 A 
HETATM   30  C31 UNL     1      -5.731  17.879  20.103  1.00  0.00     0.014 A 
HETATM   31  C32 UNL     1      -6.517  17.287  19.088  1.00  0.00    -0.006 A 
HETATM   32  C33 UNL     1      -5.870  17.071  17.712  1.00  0.00     0.185 C 
HETATM   33  O6  UNL     1      -6.652  16.191  16.893  1.00  0.00    -0.371 OA
HETATM   34  C34 UNL     1      -2.685  14.545  16.514  1.00  0.00     0.032 C 
HETATM   35  C35 UNL     1      -2.745  13.150  15.878  1.00  0.00    -0.055 C 
HETATM   36  C36 UNL     1      -3.597  12.138  16.338  1.00  0.00     0.001 C 
HETATM   37  C37 UNL     1      -3.509  10.840  15.829  1.00  0.00     0.096 A 
HETATM   38  C38 UNL     1      -2.552  10.511  14.853  1.00  0.00     0.086 A 
HETATM   39  C39 UNL     1      -1.844  11.571  14.256  1.00  0.00     0.004 C 
HETATM   40  C40 UNL     1      -1.930  12.869  14.774  1.00  0.00     0.005 C 
HETATM   41  C41 UNL     1      -2.106   9.028  14.656  1.00  0.00     0.167 C 
HETATM   42  O8  UNL     1      -0.702   8.809  15.096  1.00  0.00    -0.318 OA
HETATM   43 NA1  UNL     1      -3.344  12.685  16.087  1.00  0.00    -0.348 Na
ATOM     44 1HA1 UNL     1      -3.206  13.526  16.648  1.00  0.00     0.104 HD
ATOM     45 2HA1 UNL     1      -3.695  13.642  16.129  1.00  0.00     0.104 HD
ENDROOT
BRANCH  41  46
HETATM   46  C42 UNL     1      -2.076   8.686  13.132  1.00  0.00     0.067 C 
BRANCH  46  47
HETATM   47  C43 UNL     1      -0.682   8.770  12.484  1.00  0.00     0.042 C 
BRANCH  47  48
HETATM   48  C44 UNL     1      -0.163   7.421  11.976  1.00  0.00     0.058 C 
HETATM   49  C45 UNL     1       1.226   7.099  12.537  1.00  0.00     0.038 C 
HETATM   50  C46 UNL     1       1.802   6.054  11.584  1.00  0.00     0.003 C 
HETATM   51  C47 UNL     1       1.057   6.221  10.261  1.00  0.00     0.003 C 
HETATM   52  C48 UNL     1       0.068   7.369  10.465  1.00  0.00     0.038 C 
BRANCH  48  53
HETATM   53  O7  UNL     1      -1.087   6.403  12.361  1.00  0.00    -0.390 OA
HETATM   54  H46 UNL     1      -0.720   5.536  12.125  1.00  0.00     0.210 HD
ENDBRANCH  48  53
ENDBRANCH  47  48
ENDBRANCH  46  47
ENDBRANCH  41  46
BRANCH  41  55
HETATM   55  N1  UNL     1      -3.096   8.098  15.257  1.00  0.00    -0.338 N 
HETATM   56  C49 UNL     1      -2.776   6.902  15.559  1.00  0.00     0.124 C 
HETATM   57  N2  UNL     1      -3.696   6.073  16.100  1.00  0.00    -0.279 NA
HETATM   58  N3  UNL     1      -1.606   6.238  15.419  1.00  0.00    -0.279 NA
HETATM   59  H55 UNL     1      -3.662   5.150  15.687  1.00  0.00     0.126 HD
HETATM   60  H56 UNL     1      -4.623   6.479  16.021  1.00  0.00     0.126 HD
HETATM   61  H57 UNL     1      -1.376   5.710  16.254  1.00  0.00     0.126 HD
HETATM   62  H58 UNL     1      -0.838   6.875  15.204  1.00  0.00     0.126 HD
ATOM     63  H1  UNL     1      -4.047   8.422  15.430  1.00  0.00     0.164 HD
ENDBRANCH  41  55
BRANCH  13  64
HETATM   64  S1  UNL     1      -0.827  16.516  18.840  1.00  0.00     0.106 S 
HETATM   65  O1  UNL     1      -1.900  17.481  19.071  1.00  0.00    -0.595 OA
HETATM   66  O2  UNL     1      -0.354  16.536  17.458  1.00  0.00    -0.595 OA
HETATM   67  O3  UNL     1       0.228  16.527  19.850  1.00  0.00    -0.595 OA
ENDBRANCH  13  64
BRANCH  22  68
HETATM   68  C23 UNL     1      -7.933  13.385  16.253  1.00  0.00     0.169 C 
BRANCH  68  69
HETATM   69  O4  UNL     1      -7.690  13.799  17.599  1.00  0.00    -0.400 OA
HETATM   70  H29 UNL     1      -8.554  13.831  18.042  1.00  0.00     0.209 HD
ENDBRANCH  68  69
ENDBRANCH  22  68
BRANCH  28  71
HETATM   71  O5  UNL     1      -8.131  18.077  22.862  1.00  0.00    -0.361 OA
HETATM   72  H33 UNL     1      -7.435  18.454  23.427  1.00  0.00     0.217 HD
ENDBRANCH  28  71
TORSDOF 9
ENDMDL
