MODEL 1
REMARK minimizedAffinity -10.9551201
REMARK  0 active torsions:
REMARK  status: ('A' for Active; 'I' for Inactive)
ROOT
HETATM    1  C1  UNL     1      -8.861  48.081 -20.542  1.00  0.00     0.023 C 
HETATM    2  C2  UNL     1      -7.495  47.391 -20.751  1.00  0.00     0.017 C 
HETATM    3  C3  UNL     1      -7.747  46.111 -21.568  1.00  0.00     0.023 C 
HETATM    4  C4  UNL     1      -6.984  47.009 -19.358  1.00  0.00     0.135 C 
HETATM    5  O1  UNL     1      -7.317  45.966 -18.792  1.00  0.00    -0.297 OA
HETATM    6  C5  UNL     1      -6.112  48.017 -18.655  1.00  0.00     0.080 C 
HETATM    7  C6  UNL     1      -4.868  48.373 -19.462  1.00  0.00     0.017 C 
HETATM    8  C7  UNL     1      -4.986  48.194 -21.019  1.00  0.00    -0.035 C 
HETATM    9  C8  UNL     1      -4.478  46.767 -21.332  1.00  0.00     0.016 C 
HETATM   10  C9  UNL     1      -4.108  49.326 -21.712  1.00  0.00     0.003 C 
HETATM   11  C10 UNL     1      -2.604  49.253 -21.375  1.00  0.00     0.006 C 
HETATM   12  C11 UNL     1      -1.834  50.501 -21.817  1.00  0.00     0.006 C 
HETATM   13  C12 UNL     1      -2.028  50.821 -23.303  1.00  0.00    -0.000 C 
HETATM   14  C13 UNL     1      -1.217  52.039 -23.804  1.00  0.00     0.009 C 
HETATM   15  C14 UNL     1       0.301  52.137 -23.546  1.00  0.00     0.067 A 
HETATM   16  C15 UNL     1       0.809  53.036 -24.715  1.00  0.00     0.140 A 
HETATM   17  C16 UNL     1      -0.400  53.335 -25.610  1.00  0.00     0.042 C 
HETATM   18  C17 UNL     1      -1.334  52.152 -25.348  1.00  0.00    -0.037 C 
HETATM   19  C18 UNL     1      -0.803  50.925 -26.137  1.00  0.00     0.015 C 
HETATM   20  C19 UNL     1      -2.799  52.410 -25.723  1.00  0.00     0.010 C 
HETATM   21  C20 UNL     1      -3.724  51.293 -25.199  1.00  0.00     0.011 C 
HETATM   22  C21 UNL     1      -3.567  50.965 -23.670  1.00  0.00    -0.032 C 
HETATM   23  C22 UNL     1      -4.183  52.199 -22.925  1.00  0.00     0.016 C 
HETATM   24  C23 UNL     1      -4.337  49.588 -23.253  1.00  0.00    -0.032 C 
HETATM   25  C24 UNL     1      -3.806  48.405 -24.117  1.00  0.00     0.016 C 
HETATM   26  C25 UNL     1      -5.865  49.690 -23.515  1.00  0.00     0.011 C 
HETATM   27  C26 UNL     1      -6.678  48.527 -22.940  1.00  0.00     0.007 C 
HETATM   28  C27 UNL     1      -6.491  48.401 -21.418  1.00  0.00     0.009 C 
HETATM   29  O2  UNL     1       1.330  54.267 -24.192  1.00  0.00    -0.313 OA
HETATM   30  C28 UNL     1       1.296  54.250 -22.831  1.00  0.00     0.297 A 
HETATM   31  O3  UNL     1       1.694  55.141 -22.101  1.00  0.00    -0.262 OA
HETATM   32  C29 UNL     1       0.747  52.961 -22.386  1.00  0.00     0.175 A 
HETATM   33  C30 UNL     1       1.190  52.347 -21.080  1.00  0.00     0.218 A 
HETATM   34  O4  UNL     1      -0.095  52.965 -21.230  1.00  0.00    -0.364 OA
ENDROOT
TORSDOF 0
ENDMDL
