MODEL 1
REMARK minimizedAffinity -6.96727133
REMARK CNNscore 0.670548439
REMARK CNNaffinity 6.12189484
REMARK  15 active torsions:
REMARK  status: ('A' for Active; 'I' for Inactive)
REMARK    1  A    between atoms: C19_20  and  O2_21 
REMARK    2  A    between atoms: C19_20  and  C20_22 
REMARK    3  A    between atoms: C20_22  and  C21_24 
REMARK    4  A    between atoms: C21_24  and  O4_25 
REMARK    5  A    between atoms: O4_25  and  C22_26 
REMARK    6  A    between atoms: C22_26  and  C23_28 
REMARK    7  A    between atoms: C23_28  and  C24_29 
REMARK    8  A    between atoms: C24_29  and  C25_30 
REMARK       I    between atoms: C25_30  and  N1_32 
REMARK    9  A    between atoms: N1_32  and  C26_33 
REMARK   10  A    between atoms: C26_33  and  C27_34 
REMARK   11  A    between atoms: C27_34  and  C28_35 
REMARK   12  A    between atoms: C28_35  and  C29_36 
REMARK   13  A    between atoms: C29_36  and  C30_37 
REMARK   14  A    between atoms: C30_37  and  C31_38 
REMARK   15  A    between atoms: C31_38  and  O8_40 
ROOT
HETATM    1  C1  UNL     1      -0.624  50.909 -21.862  1.00  0.00     0.020 C 
HETATM    2  C2  UNL     1      -1.797  50.419 -20.964  1.00  0.00    -0.016 C 
HETATM    3  C3  UNL     1      -2.154  51.579 -19.991  1.00  0.00     0.022 C 
HETATM    4  C4  UNL     1      -1.106  51.846 -18.918  1.00  0.00     0.084 C 
HETATM    5  C5  UNL     1      -0.820  50.586 -18.148  1.00  0.00     0.149 C 
HETATM    6  O1  UNL     1      -0.473  50.597 -16.970  1.00  0.00    -0.293 OA
HETATM    7  C6  UNL     1      -0.869  49.301 -18.880  1.00  0.00     0.053 C 
HETATM    8  C7  UNL     1      -1.259  49.223 -20.167  1.00  0.00    -0.068 C 
HETATM    9  C8  UNL     1      -1.130  47.885 -20.855  1.00  0.00     0.035 C 
HETATM   10  C9  UNL     1      -1.968  47.737 -22.116  1.00  0.00     0.010 C 
HETATM   11  C10 UNL     1      -3.286  48.507 -22.059  1.00  0.00    -0.004 C 
HETATM   12  C11 UNL     1      -3.019  50.038 -21.930  1.00  0.00     0.002 C 
HETATM   13  C12 UNL     1      -4.353  50.816 -21.753  1.00  0.00     0.007 C 
HETATM   14  C13 UNL     1      -5.353  50.226 -20.743  1.00  0.00     0.013 C 
HETATM   15  C14 UNL     1      -5.619  48.728 -20.987  1.00  0.00    -0.002 C 
HETATM   16  C15 UNL     1      -6.372  48.534 -22.329  1.00  0.00     0.019 C 
HETATM   17  C16 UNL     1      -4.235  48.032 -20.949  1.00  0.00     0.002 C 
HETATM   18  C17 UNL     1      -4.579  46.550 -20.891  1.00  0.00     0.009 C 
HETATM   19  C18 UNL     1      -5.851  46.487 -20.028  1.00  0.00     0.047 C 
HETATM   20  C19 UNL     1      -6.347  47.949 -19.845  1.00  0.00     0.128 C 
ENDROOT
BRANCH  20  21
HETATM   21  O2  UNL     1      -5.884  48.409 -18.572  1.00  0.00    -0.381 OA
HETATM   22  H27 UNL     1      -6.233  47.809 -17.884  1.00  0.00     0.211 HD
ENDBRANCH  20  21
BRANCH  20  23
HETATM   23  C20 UNL     1      -7.889  48.053 -19.870  1.00  0.00     0.185 C 
HETATM   24  O3  UNL     1      -8.499  48.531 -20.831  1.00  0.00    -0.292 OA
BRANCH  23  25
HETATM   25  C21 UNL     1      -8.638  47.545 -18.637  1.00  0.00     0.260 C 
BRANCH  25  26
HETATM   26  O4  UNL     1      -9.679  48.436 -18.234  1.00  0.00    -0.314 OA
BRANCH  26  27
HETATM   27  C22 UNL     1     -10.627  47.856 -17.446  1.00  0.00     0.259 C 
HETATM   28  O5  UNL     1     -10.543  47.723 -16.233  1.00  0.00    -0.265 OA
BRANCH  27  29
HETATM   29  C23 UNL     1     -11.771  47.355 -18.276  1.00  0.00     0.120 C 
BRANCH  29  30
HETATM   30  C24 UNL     1     -12.972  47.090 -17.383  1.00  0.00     0.112 C 
BRANCH  30  31
HETATM   31  C25 UNL     1     -14.253  47.573 -18.026  1.00  0.00     0.217 C 
HETATM   32  O6  UNL     1     -14.853  48.578 -17.662  1.00  0.00    -0.274 OA
HETATM   33  N1  UNL     1     -14.679  46.765 -19.060  1.00  0.00    -0.361 N 
HETATM   34  H34 UNL     1     -14.007  46.120 -19.455  1.00  0.00     0.162 HD
BRANCH  33  35
HETATM   35  C26 UNL     1     -15.823  47.143 -19.866  1.00  0.00     0.122 C 
BRANCH  35  36
HETATM   36  C27 UNL     1     -16.394  45.943 -20.616  1.00  0.00     0.020 C 
BRANCH  36  37
HETATM   37  C28 UNL     1     -17.107  46.327 -21.917  1.00  0.00     0.002 C 
BRANCH  37  38
HETATM   38  C29 UNL     1     -18.637  46.335 -21.859  1.00  0.00     0.010 C 
BRANCH  38  39
HETATM   39  C30 UNL     1     -19.295  45.767 -23.115  1.00  0.00     0.110 C 
BRANCH  39  40
HETATM   40  C31 UNL     1     -18.800  46.451 -24.362  1.00  0.00     0.139 C 
HETATM   41  O7  UNL     1     -19.023  47.593 -24.722  1.00  0.00    -0.650 OA
BRANCH  40  42
HETATM   42  O8  UNL     1     -18.023  45.636 -25.103  1.00  0.00    -0.776 OA
HETATM   43  H45 UNL     1     -17.766  46.189 -25.871  1.00  0.00     0.167 HD
ENDBRANCH  40  42
ENDBRANCH  39  40
ENDBRANCH  38  39
ENDBRANCH  37  38
ENDBRANCH  36  37
ENDBRANCH  35  36
ENDBRANCH  33  35
ENDBRANCH  30  31
ENDBRANCH  29  30
ENDBRANCH  27  29
ENDBRANCH  26  27
ENDBRANCH  25  26
ENDBRANCH  23  25
ENDBRANCH  20  23
TORSDOF 15
ENDMDL
