MODEL 1
REMARK minimizedAffinity -8.90446568
REMARK  9 active torsions:
REMARK  status: ('A' for Active; 'I' for Inactive)
REMARK    1  A    between atoms: C11_11  and  C13_13 
REMARK    2  A    between atoms: C13_13  and  O2_15 
REMARK    3  A    between atoms: C15_17  and  C16_18 
REMARK    4  A    between atoms: C16_18  and  C17_19 
REMARK    5  A    between atoms: C17_19  and  C18_20 
REMARK    6  A    between atoms: C19_21  and  C20_22 
REMARK    7  A    between atoms: C20_22  and  O3_23 
REMARK    8  A    between atoms: O3_23  and  C21_24 
REMARK    9  A    between atoms: C21_24  and  C22_26 
ROOT
HETATM    1  C16 UNL     1      -3.510   6.385  14.023  1.00  0.00     0.014 C 
ENDROOT
BRANCH   1   2
HETATM    2  C15 UNL     1      -2.431   7.092  13.158  1.00  0.00     0.022 C 
HETATM    3  C2  UNL     1      -2.534   8.615  13.106  1.00  0.00    -0.084 C 
HETATM    4  C1  UNL     1      -3.287   9.399  13.896  1.00  0.00     0.014 C 
HETATM    5  C3  UNL     1      -1.626   9.227  12.072  1.00  0.00     0.034 C 
HETATM    6  C4  UNL     1      -0.180   8.904  12.421  1.00  0.00     0.011 C 
HETATM    7  C5  UNL     1       0.114   7.390  12.571  1.00  0.00     0.012 C 
HETATM    8  C6  UNL     1      -0.945   6.676  13.516  1.00  0.00    -0.032 C 
HETATM    9  C11 UNL     1       0.455   6.605  11.229  1.00  0.00     0.049 C 
HETATM   10  C7  UNL     1      -0.635   7.062  14.990  1.00  0.00     0.016 C 
HETATM   11  C8  UNL     1      -0.715   5.151  13.404  1.00  0.00     0.010 C 
HETATM   12  C9  UNL     1      -1.011   4.599  12.017  1.00  0.00     0.002 C 
HETATM   13  C10 UNL     1      -0.599   5.528  10.876  1.00  0.00     0.020 C 
HETATM   14  C12 UNL     1       0.597   7.498   9.972  1.00  0.00     0.026 C 
BRANCH   9  15
HETATM   15  C13 UNL     1       1.873   6.004  11.401  1.00  0.00     0.267 C 
HETATM   16  O1  UNL     1       2.691   6.425  12.215  1.00  0.00    -0.264 OA
BRANCH  15  17
HETATM   17  O2  UNL     1       2.105   4.951  10.571  1.00  0.00    -0.326 OA
HETATM   18  C14 UNL     1       3.240   5.102   9.719  1.00  0.00     0.213 C 
ENDBRANCH  15  17
ENDBRANCH   9  15
ENDBRANCH   1   2
BRANCH   1  19
HETATM   19  C17 UNL     1      -4.930   6.573  13.462  1.00  0.00     0.042 C 
BRANCH  19  20
HETATM   20  C18 UNL     1      -5.984   6.297  14.484  1.00  0.00    -0.024 A 
HETATM   21  C19 UNL     1      -7.326   6.013  14.270  1.00  0.00     0.083 A 
HETATM   22  O5  UNL     1      -7.960   5.818  15.463  1.00  0.00    -0.324 OA
HETATM   23  C28 UNL     1      -7.032   5.966  16.440  1.00  0.00     0.143 A 
HETATM   24  C29 UNL     1      -5.806   6.262  15.897  1.00  0.00     0.034 A 
BRANCH  21  25
HETATM   25  C20 UNL     1      -8.182   5.905  13.057  1.00  0.00     0.244 C 
BRANCH  25  26
HETATM   26  O3  UNL     1      -7.542   4.977  12.170  1.00  0.00    -0.311 OA
BRANCH  26  27
HETATM   27  C21 UNL     1      -7.630   3.668  12.499  1.00  0.00     0.293 C 
HETATM   28  O4  UNL     1      -8.603   3.101  12.971  1.00  0.00    -0.259 OA
BRANCH  27  29
HETATM   29  C22 UNL     1      -6.351   2.972  12.180  1.00  0.00     0.039 A 
HETATM   30  C23 UNL     1      -5.147   3.645  12.438  1.00  0.00     0.019 A 
HETATM   31  C24 UNL     1      -3.922   3.026  12.170  1.00  0.00     0.025 A 
HETATM   32  C25 UNL     1      -3.895   1.736  11.641  1.00  0.00     0.034 A 
HETATM   33 CL1  UNL     1      -2.389   0.978  11.304  1.00  0.00    -0.084 Cl
HETATM   34  C26 UNL     1      -5.085   1.059  11.375  1.00  0.00     0.025 A 
HETATM   35  C27 UNL     1      -6.311   1.674  11.646  1.00  0.00     0.019 A 
ENDBRANCH  27  29
ENDBRANCH  26  27
ENDBRANCH  25  26
ENDBRANCH  21  25
ENDBRANCH  19  20
ENDBRANCH   1  19
TORSDOF 9
ENDMDL
