MODEL 1
REMARK minimizedAffinity -3.93299937
REMARK  3 active torsions:
REMARK  status: ('A' for Active; 'I' for Inactive)
REMARK    1  A    between atoms: N1_2  and  C4_5 
REMARK    2  A    between atoms: C4_5  and  C5_6 
REMARK    3  A    between atoms: C5_6  and  O2_8 
ROOT
HETATM    1  C4  UNL     1       0.366  52.727 -27.946  1.00  0.00     0.345 C 
ENDROOT
BRANCH   1   2
HETATM    2  N1  UNL     1       0.801  51.973 -26.644  1.00  0.00    -0.069 N 
HETATM    3  C1  UNL     1       0.543  52.837 -25.415  1.00  0.00     0.272 C 
HETATM    4  C2  UNL     1       2.279  51.605 -26.707  1.00  0.00     0.272 C 
HETATM    5  C3  UNL     1      -0.024  50.696 -26.535  1.00  0.00     0.272 C 
ENDBRANCH   1   2
BRANCH   1   6
HETATM    6  C5  UNL     1      -0.587  53.908 -27.778  1.00  0.00     0.166 C 
HETATM    7  O1  UNL     1      -0.285  55.057 -27.508  1.00  0.00    -0.649 OA
BRANCH   6   8
HETATM    8  O2  UNL     1      -1.872  53.551 -27.966  1.00  0.00    -0.775 OA
HETATM    9  H12 UNL     1      -2.410  54.366 -27.839  1.00  0.00     0.167 HD
ENDBRANCH   6   8
ENDBRANCH   1   6
TORSDOF 3
ENDMDL
