MODEL 1
REMARK minimizedAffinity -8.3084383
REMARK CNNscore 0.384029955
REMARK CNNaffinity 6.51140451
REMARK  9 active torsions:
REMARK  status: ('A' for Active; 'I' for Inactive)
REMARK    1  A    between atoms: C13_13  and  S1_14 
REMARK    2  A    between atoms: C25_30  and  O5_31 
REMARK    3  A    between atoms: C31_37  and  C32_38 
REMARK    4  A    between atoms: C32_38  and  O6_39 
REMARK    5  A    between atoms: C40_47  and  C41_48 
REMARK    6  A    between atoms: C40_47  and  N1_52 
REMARK    7  A    between atoms: C41_48  and  C42_49 
REMARK    8  A    between atoms: C42_49  and  C43_50 
REMARK    9  A    between atoms: C43_50  and  O7_51 
REMARK       I    between atoms: C44_54  and  N2_55 
REMARK       I    between atoms: C44_54  and  N3_56 
ROOT
HETATM    1  C1  UNL     1      -9.692  43.795 -22.744  1.00  0.00     0.010 C 
HETATM    2  C2  UNL     1      -9.522  44.161 -24.215  1.00  0.00    -0.010 C 
HETATM    3  C3  UNL     1      -8.258  45.067 -24.424  1.00  0.00     0.009 C 
HETATM    4  C4  UNL     1      -8.352  46.083 -25.599  1.00  0.00     0.039 C 
HETATM    5  C5  UNL     1      -9.158  45.527 -26.743  1.00  0.00    -0.049 C 
HETATM    6  C6  UNL     1      -8.952  45.868 -28.075  1.00  0.00     0.044 C 
HETATM    7  C7  UNL     1      -9.730  45.236 -29.037  1.00  0.00     0.072 C 
HETATM    8  C8  UNL     1     -10.483  44.104 -28.724  1.00  0.00     0.037 C 
HETATM    9  C9  UNL     1     -10.783  43.860 -27.392  1.00  0.00     0.011 C 
HETATM   10  C10 UNL     1     -10.245  44.696 -26.416  1.00  0.00    -0.047 C 
HETATM   11  C11 UNL     1     -10.720  44.794 -24.962  1.00  0.00     0.024 C 
HETATM   12  C12 UNL     1     -12.164  44.293 -24.736  1.00  0.00     0.033 C 
HETATM   13  C13 UNL     1     -13.158  45.133 -23.885  1.00  0.00     0.139 C 
HETATM   14  C14 UNL     1     -14.557  45.409 -24.531  1.00  0.00     0.038 C 
HETATM   15  C15 UNL     1     -15.528  44.229 -24.432  1.00  0.00    -0.014 C 
HETATM   16  C16 UNL     1     -16.846  44.494 -24.582  1.00  0.00    -0.050 C 
HETATM   17  C17 UNL     1     -17.202  45.911 -24.995  1.00  0.00     0.042 C 
HETATM   18  C18 UNL     1     -16.399  46.157 -26.290  1.00  0.00     0.001 C 
HETATM   19  C19 UNL     1     -16.773  45.093 -27.396  1.00  0.00     0.038 C 
HETATM   20  C20 UNL     1     -18.055  44.242 -27.197  1.00  0.00     0.130 C 
HETATM   21  O4  UNL     1     -17.696  43.208 -26.275  1.00  0.00    -0.371 OA
HETATM   22  C21 UNL     1     -17.934  43.508 -24.895  1.00  0.00     0.185 C 
HETATM   23  C22 UNL     1     -18.102  42.186 -24.159  1.00  0.00    -0.006 A 
HETATM   24  C23 UNL     1     -17.515  41.947 -22.908  1.00  0.00     0.014 A 
HETATM   25  C24 UNL     1     -17.743  40.742 -22.235  1.00  0.00     0.037 A 
HETATM   26  C25 UNL     1     -18.571  39.775 -22.796  1.00  0.00     0.067 A 
HETATM   27  C26 UNL     1     -19.194  39.988 -24.022  1.00  0.00     0.057 A 
HETATM   28  C27 UNL     1     -18.974  41.190 -24.698  1.00  0.00     0.029 A 
HETATM   29  C28 UNL     1     -19.629  41.419 -25.963  1.00  0.00    -0.066 C 
HETATM   30  C29 UNL     1     -19.913  41.894 -27.031  1.00  0.00    -0.101 C 
HETATM   31  C30 UNL     1     -19.931  42.766 -28.225  1.00  0.00     0.103 C 
HETATM   32  C31 UNL     1     -18.569  43.510 -28.475  1.00  0.00     0.049 C 
HETATM   33  C33 UNL     1     -14.836  46.268 -25.872  1.00  0.00     0.030 C 
HETATM   34  C34 UNL     1     -13.836  46.403 -27.034  1.00  0.00    -0.050 A 
HETATM   35  C35 UNL     1     -12.891  47.440 -26.999  1.00  0.00     0.006 A 
HETATM   36  C36 UNL     1     -11.943  47.643 -28.021  1.00  0.00     0.010 A 
HETATM   37  C37 UNL     1     -11.943  46.878 -29.197  1.00  0.00    -0.000 A 
HETATM   38  C38 UNL     1     -12.925  45.880 -29.266  1.00  0.00     0.138 A 
HETATM   39  C39 UNL     1     -13.800  45.616 -28.189  1.00  0.00     0.133 A 
HETATM   40  C40 UNL     1     -10.792  46.988 -30.268  1.00  0.00     0.169 C 
HETATM   41  O8  UNL     1      -9.928  45.779 -30.277  1.00  0.00    -0.316 OA
HETATM   42 NA1  UNL     1     -13.548  45.066 -26.962  1.00  0.00    -0.401 Na
ATOM     43  HA1 UNL     1     -13.581  44.688 -26.016  1.00  0.00     0.154 HD
ENDROOT
BRANCH  40  44
HETATM   44  C41 UNL     1     -11.401  46.969 -31.719  1.00  0.00     0.069 C 
BRANCH  44  45
HETATM   45  C42 UNL     1     -10.741  46.023 -32.738  1.00  0.00     0.031 C 
BRANCH  45  46
HETATM   46  C43 UNL     1     -11.535  44.775 -33.088  1.00  0.00     0.164 C 
BRANCH  46  47
HETATM   47  O7  UNL     1     -12.439  45.090 -34.146  1.00  0.00    -0.401 OA
HETATM   48  H46 UNL     1     -13.008  44.310 -34.258  1.00  0.00     0.209 HD
ENDBRANCH  46  47
ENDBRANCH  45  46
ENDBRANCH  44  45
ENDBRANCH  40  44
BRANCH  40  49
HETATM   49  N1  UNL     1      -9.995  48.231 -30.140  1.00  0.00    -0.336 N 
HETATM   50  C44 UNL     1      -8.823  48.402 -30.608  1.00  0.00     0.124 C 
HETATM   51  N2  UNL     1      -8.199  49.584 -30.399  1.00  0.00    -0.279 NA
HETATM   52  N3  UNL     1      -8.004  47.593 -31.316  1.00  0.00    -0.279 NA
HETATM   53  H47 UNL     1      -7.243  49.475 -30.089  1.00  0.00     0.126 HD
HETATM   54  H48 UNL     1      -8.738  50.160 -29.761  1.00  0.00     0.126 HD
HETATM   55  H49 UNL     1      -7.500  48.116 -32.025  1.00  0.00     0.126 HD
HETATM   56  H50 UNL     1      -8.485  46.821 -31.768  1.00  0.00     0.126 HD
ATOM     57  H1  UNL     1     -10.419  49.011 -29.638  1.00  0.00     0.165 HD
ENDBRANCH  40  49
BRANCH  13  58
HETATM   58  S1  UNL     1     -12.581  46.589 -22.972  1.00  0.00     0.106 S 
HETATM   59  O1  UNL     1     -13.782  47.377 -22.733  1.00  0.00    -0.595 OA
HETATM   60  O2  UNL     1     -11.950  46.063 -21.769  1.00  0.00    -0.595 OA
HETATM   61  O3  UNL     1     -11.647  47.236 -23.894  1.00  0.00    -0.595 OA
ENDBRANCH  13  58
BRANCH  32  62
HETATM   62  C32 UNL     1     -17.536  42.533 -29.056  1.00  0.00     0.172 C 
BRANCH  62  63
HETATM   63  O6  UNL     1     -16.957  41.757 -28.005  1.00  0.00    -0.400 OA
HETATM   64  H34 UNL     1     -17.623  41.104 -27.731  1.00  0.00     0.209 HD
ENDBRANCH  62  63
ENDBRANCH  32  62
BRANCH  26  65
HETATM   65  O5  UNL     1     -18.758  38.618 -22.097  1.00  0.00    -0.361 OA
HETATM   66  H27 UNL     1     -19.335  38.037 -22.619  1.00  0.00     0.217 HD
ENDBRANCH  26  65
TORSDOF 9
ENDMDL
