MODEL 1
REMARK minimizedAffinity -8.65658474
REMARK  5 active torsions:
REMARK  status: ('A' for Active; 'I' for Inactive)
REMARK    1  A    between atoms: C2_2  and  C4_4 
REMARK    2  A    between atoms: C7_7  and  C8_8 
REMARK    3  A    between atoms: C8_8  and  O2_10 
REMARK    4  A    between atoms: C11_13  and  C12_14 
REMARK    5  A    between atoms: C12_14  and  O4_16 
ROOT
HETATM    1  C4  UNL     1      -1.956   4.514  12.628  1.00  0.00     0.019 C 
HETATM    2  C5  UNL     1      -3.490   4.441  12.840  1.00  0.00     0.011 C 
HETATM    3  C6  UNL     1      -3.977   5.888  13.008  1.00  0.00     0.021 C 
HETATM    4  C7  UNL     1      -2.739   6.637  13.513  1.00  0.00     0.050 C 
HETATM    5  C9  UNL     1      -2.767   8.150  13.297  1.00  0.00     0.022 C 
HETATM    6  C10 UNL     1      -1.389   8.782  13.588  1.00  0.00     0.023 C 
HETATM    7  C11 UNL     1      -0.128   8.095  12.930  1.00  0.00     0.057 C 
HETATM    8  C13 UNL     1      -0.238   6.534  12.961  1.00  0.00     0.011 C 
HETATM    9  C14 UNL     1       0.863   5.890  12.113  1.00  0.00     0.007 C 
HETATM   10  C15 UNL     1       2.229   6.579  12.203  1.00  0.00     0.006 C 
HETATM   11  C16 UNL     1       2.443   7.451  13.460  1.00  0.00     0.003 C 
HETATM   12  C17 UNL     1       3.955   8.010  13.607  1.00  0.00    -0.035 C 
HETATM   13  C18 UNL     1       4.355   7.913  15.108  1.00  0.00     0.016 C 
HETATM   14  C19 UNL     1       4.972   7.128  12.820  1.00  0.00     0.017 C 
HETATM   15  C20 UNL     1       6.405   7.638  12.835  1.00  0.00     0.080 C 
HETATM   16  C21 UNL     1       6.479   9.055  12.328  1.00  0.00     0.135 C 
HETATM   17  O5  UNL     1       7.381   9.375  11.550  1.00  0.00    -0.297 OA
HETATM   18  C22 UNL     1       5.493  10.084  12.909  1.00  0.00     0.017 C 
HETATM   19  C23 UNL     1       6.080  10.611  14.228  1.00  0.00     0.023 C 
HETATM   20  C24 UNL     1       5.450  11.280  11.919  1.00  0.00     0.023 C 
HETATM   21  C25 UNL     1       4.054   9.460  13.027  1.00  0.00     0.009 C 
HETATM   22  C26 UNL     1       3.050  10.390  13.728  1.00  0.00     0.007 C 
HETATM   23  C27 UNL     1       1.626   9.984  13.389  1.00  0.00     0.011 C 
HETATM   24  C28 UNL     1       1.254   8.509  13.715  1.00  0.00    -0.022 C 
HETATM   25  C29 UNL     1       1.009   8.485  15.264  1.00  0.00     0.017 C 
HETATM   26  C30 UNL     1      -1.652   6.031  12.597  1.00  0.00     0.018 C 
ENDROOT
BRANCH   4  27
HETATM   27  C8  UNL     1      -2.592   6.330  15.012  1.00  0.00     0.149 C 
HETATM   28  O1  UNL     1      -3.410   6.517  15.894  1.00  0.00    -0.649 OA
BRANCH  27  29
HETATM   29  O2  UNL     1      -1.385   5.819  15.329  1.00  0.00    -0.776 OA
HETATM   30  H11 UNL     1      -1.425   5.699  16.300  1.00  0.00     0.167 HD
ENDBRANCH  27  29
ENDBRANCH   4  27
BRANCH   1  31
HETATM   31  C2  UNL     1      -1.507   3.707  11.421  1.00  0.00    -0.088 C 
HETATM   32  C1  UNL     1      -0.323   3.067  11.420  1.00  0.00     0.014 C 
HETATM   33  C3  UNL     1      -2.422   3.613  10.227  1.00  0.00     0.043 C 
ENDBRANCH   1  31
BRANCH   7  34
HETATM   34  C12 UNL     1      -0.085   8.555  11.437  1.00  0.00     0.149 C 
HETATM   35  O3  UNL     1       0.812   8.390  10.625  1.00  0.00    -0.649 OA
BRANCH  34  36
HETATM   36  O4  UNL     1      -1.198   9.172  11.000  1.00  0.00    -0.776 OA
HETATM   37  H16 UNL     1      -0.994   9.371  10.061  1.00  0.00     0.167 HD
ENDBRANCH  34  36
ENDBRANCH   7  34
TORSDOF 5
ENDMDL
