MODEL 1
REMARK minimizedAffinity -7.19476032
REMARK  2 active torsions:
REMARK  status: ('A' for Active; 'I' for Inactive)
REMARK    1  A    between atoms: C2_2  and  C3_3 
REMARK    2  A    between atoms: C3_3  and  C4_4 
ROOT
HETATM    1  C3  UNL     1      -7.134   5.582  13.865  1.00  0.00     0.011 C 
HETATM    2  C7  UNL     1      -5.605   5.363  13.623  1.00  0.00     0.055 C 
HETATM    3  C8  UNL     1      -5.572   4.107  12.805  1.00  0.00    -0.051 A 
HETATM    4  C9  UNL     1      -4.524   3.611  12.045  1.00  0.00     0.011 A 
HETATM    5  C10 UNL     1      -4.704   2.390  11.391  1.00  0.00     0.043 A 
HETATM    6  C11 UNL     1      -5.911   1.694  11.522  1.00  0.00     0.117 A 
HETATM    7  F1  UNL     1      -6.059   0.521  10.891  1.00  0.00    -0.206 F 
HETATM    8  C12 UNL     1      -6.957   2.187  12.295  1.00  0.00     0.049 A 
HETATM    9  C13 UNL     1      -6.774   3.405  12.929  1.00  0.00    -0.048 A 
HETATM   10  C14 UNL     1      -7.723   4.128  13.835  1.00  0.00     0.055 C 
ENDROOT
BRANCH   1  11
HETATM   11  C2  UNL     1      -7.788   6.408  12.709  1.00  0.00     0.012 C 
HETATM   12  C1  UNL     1      -8.837   5.672  11.882  1.00  0.00     0.006 C 
ENDBRANCH   1  11
BRANCH   1  13
HETATM   13  C4  UNL     1      -7.429   6.232  15.196  1.00  0.00     0.035 A 
HETATM   14  C5  UNL     1      -6.742   6.166  16.393  1.00  0.00     0.114 A 
HETATM   15  N1  UNL     1      -7.440   6.963  17.258  1.00  0.00    -0.360 N 
HETATM   16  C6  UNL     1      -8.498   7.485  16.575  1.00  0.00     0.180 A 
HETATM   17  H7  UNL     1      -7.213   7.142  18.227  1.00  0.00     0.166 HD
HETATM   18  N2  UNL     1      -8.517   7.069  15.331  1.00  0.00    -0.354 N 
ATOM     19  H2  UNL     1      -9.197   7.313  14.611  1.00  0.00     0.166 HD
ENDBRANCH   1  13
TORSDOF 2
ENDMDL
