MODEL 1
REMARK minimizedAffinity -10.0999403
REMARK CNNscore 0.619789839
REMARK CNNaffinity 7.54283953
REMARK  10 active torsions:
REMARK  status: ('A' for Active; 'I' for Inactive)
REMARK    1  A    between atoms: C19_20  and  O2_21 
REMARK    2  A    between atoms: C19_20  and  C20_22 
REMARK    3  A    between atoms: C20_22  and  C21_24 
REMARK    4  A    between atoms: C21_24  and  O4_25 
REMARK    5  A    between atoms: O4_25  and  C22_26 
REMARK    6  A    between atoms: C22_26  and  C23_28 
REMARK    7  A    between atoms: C23_28  and  C24_29 
REMARK    8  A    between atoms: C24_29  and  C25_30 
REMARK       I    between atoms: C25_30  and  N1_32 
REMARK    9  A    between atoms: N1_32  and  C26_33 
REMARK   10  A    between atoms: C26_33  and  C27_34 
ROOT
HETATM    1  C1  UNL     1      -0.281  49.768 -20.937  1.00  0.00     0.020 C 
HETATM    2  C2  UNL     1      -0.979  51.128 -21.158  1.00  0.00    -0.016 C 
HETATM    3  C3  UNL     1      -0.208  51.917 -22.259  1.00  0.00     0.022 C 
HETATM    4  C4  UNL     1       1.134  52.463 -21.792  1.00  0.00     0.084 C 
HETATM    5  C5  UNL     1       0.949  53.324 -20.572  1.00  0.00     0.149 C 
HETATM    6  O1  UNL     1       1.653  54.301 -20.340  1.00  0.00    -0.293 OA
HETATM    7  C6  UNL     1      -0.082  52.915 -19.590  1.00  0.00     0.053 C 
HETATM    8  C7  UNL     1      -0.936  51.906 -19.835  1.00  0.00    -0.068 C 
HETATM    9  C8  UNL     1      -1.901  51.473 -18.757  1.00  0.00     0.035 C 
HETATM   10  C9  UNL     1      -3.329  51.371 -19.281  1.00  0.00     0.010 C 
HETATM   11  C10 UNL     1      -3.408  50.431 -20.491  1.00  0.00    -0.004 C 
HETATM   12  C11 UNL     1      -2.475  50.948 -21.627  1.00  0.00     0.002 C 
HETATM   13  C12 UNL     1      -2.630  50.107 -22.921  1.00  0.00     0.007 C 
HETATM   14  C13 UNL     1      -4.094  49.881 -23.354  1.00  0.00     0.013 C 
HETATM   15  C14 UNL     1      -4.972  49.341 -22.208  1.00  0.00    -0.002 C 
HETATM   16  C15 UNL     1      -4.524  47.899 -21.844  1.00  0.00     0.019 C 
HETATM   17  C16 UNL     1      -4.843  50.333 -21.029  1.00  0.00     0.002 C 
HETATM   18  C17 UNL     1      -5.956  49.913 -20.073  1.00  0.00     0.009 C 
HETATM   19  C18 UNL     1      -7.069  49.341 -20.978  1.00  0.00     0.047 C 
HETATM   20  C19 UNL     1      -6.515  49.383 -22.418  1.00  0.00     0.128 C 
ENDROOT
BRANCH  20  21
HETATM   21  O2  UNL     1      -6.926  50.647 -22.970  1.00  0.00    -0.381 OA
HETATM   22  H27 UNL     1      -6.549  50.700 -23.868  1.00  0.00     0.211 HD
ENDBRANCH  20  21
BRANCH  20  23
HETATM   23  C20 UNL     1      -7.049  48.340 -23.414  1.00  0.00     0.185 C 
HETATM   24  O3  UNL     1      -7.444  47.242 -22.996  1.00  0.00    -0.292 OA
BRANCH  23  25
HETATM   25  C21 UNL     1      -6.996  48.653 -24.906  1.00  0.00     0.260 C 
BRANCH  25  26
HETATM   26  O4  UNL     1      -5.864  48.067 -25.553  1.00  0.00    -0.314 OA
BRANCH  26  27
HETATM   27  C22 UNL     1      -6.114  47.650 -26.825  1.00  0.00     0.259 C 
HETATM   28  O5  UNL     1      -7.118  47.043 -27.180  1.00  0.00    -0.265 OA
BRANCH  27  29
HETATM   29  C23 UNL     1      -4.998  48.057 -27.743  1.00  0.00     0.120 C 
BRANCH  29  30
HETATM   30  C24 UNL     1      -3.813  48.577 -26.946  1.00  0.00     0.112 C 
BRANCH  30  31
HETATM   31  C25 UNL     1      -3.273  49.861 -27.536  1.00  0.00     0.218 C 
HETATM   32  O6  UNL     1      -3.509  50.232 -28.681  1.00  0.00    -0.274 OA
HETATM   33  N1  UNL     1      -2.496  50.573 -26.651  1.00  0.00    -0.357 N 
HETATM   34  H34 UNL     1      -2.409  50.255 -25.696  1.00  0.00     0.162 HD
BRANCH  33  35
HETATM   35  C26 UNL     1      -1.906  51.847 -27.004  1.00  0.00     0.162 C 
BRANCH  35  36
HETATM   36  C27 UNL     1      -0.410  51.766 -26.993  1.00  0.00    -0.025 A 
HETATM   37  C28 UNL     1       0.300  51.564 -25.804  1.00  0.00     0.011 A 
HETATM   38  C29 UNL     1       1.688  51.482 -25.828  1.00  0.00     0.018 A 
HETATM   39  C30 UNL     1       2.327  51.596 -27.051  1.00  0.00     0.087 A 
HETATM   40  N2  UNL     1       1.679  51.784 -28.221  1.00  0.00    -0.375 N 
HETATM   41  C31 UNL     1       0.331  51.870 -28.164  1.00  0.00     0.096 A 
ATOM     42  H2  UNL     1       2.182  51.856 -29.105  1.00  0.00     0.164 HD
ENDBRANCH  35  36
ENDBRANCH  33  35
ENDBRANCH  30  31
ENDBRANCH  29  30
ENDBRANCH  27  29
ENDBRANCH  26  27
ENDBRANCH  25  26
ENDBRANCH  23  25
ENDBRANCH  20  23
TORSDOF 10
ENDMDL
