MODEL 1
REMARK minimizedAffinity -8.11779404
REMARK  7 active torsions:
REMARK  status: ('A' for Active; 'I' for Inactive)
REMARK    1  A    between atoms: C2_2  and  C3_3 
REMARK    2  A    between atoms: C3_3  and  N1_4 
REMARK       I    between atoms: N1_4  and  C4_5 
REMARK       I    between atoms: C4_5  and  N2_7 
REMARK    3  A    between atoms: N2_7  and  C5_8 
REMARK    4  A    between atoms: C8_11  and  O2_12 
REMARK    5  A    between atoms: O2_12  and  C9_13 
REMARK    6  A    between atoms: C13_21  and  O3_22 
REMARK    7  A    between atoms: C15_24  and  O4_25 
ROOT
HETATM    1  O2  UNL     1      -4.474   4.812  13.075  1.00  0.00    -0.293 OA
ENDROOT
BRANCH   1   2
HETATM    2  C8  UNL     1      -5.715   5.204  13.511  1.00  0.00     0.079 A 
HETATM    3  C7  UNL     1      -6.814   4.902  12.710  1.00  0.00     0.039 A 
HETATM    4  C6  UNL     1      -8.104   5.236  13.134  1.00  0.00     0.034 A 
HETATM    5  C5  UNL     1      -8.306   5.864  14.367  1.00  0.00     0.058 A 
HETATM    6  C20 UNL     1      -7.183   6.135  15.175  1.00  0.00     0.063 A 
HETATM    7  C19 UNL     1      -5.894   5.801  14.757  1.00  0.00     0.063 A 
HETATM    8 CL1  UNL     1      -7.364   6.889  16.726  1.00  0.00    -0.082 Cl
BRANCH   5   9
HETATM    9  N2  UNL     1      -9.586   6.220  14.852  1.00  0.00    -0.307 N 
HETATM   10  C4  UNL     1     -10.593   6.882  14.188  1.00  0.00     0.320 C 
HETATM   11  N1  UNL     1     -11.716   6.981  14.989  1.00  0.00    -0.343 N 
HETATM   12  O1  UNL     1     -10.544   7.343  13.056  1.00  0.00    -0.247 OA
HETATM   13  H8  UNL     1     -11.845   6.217  15.635  1.00  0.00     0.164 HD
HETATM   14  H9  UNL     1      -9.719   6.102  15.847  1.00  0.00     0.170 HD
BRANCH  11  15
HETATM   15  C3  UNL     1     -12.926   7.603  14.485  1.00  0.00     0.124 C 
BRANCH  15  16
HETATM   16  C2  UNL     1     -13.913   6.576  13.938  1.00  0.00     0.015 C 
HETATM   17  C1  UNL     1     -14.632   7.098  12.706  1.00  0.00     0.006 C 
ENDBRANCH  15  16
ENDBRANCH  11  15
ENDBRANCH   5   9
ENDBRANCH   1   2
BRANCH   1  18
HETATM   18  C9  UNL     1      -3.503   5.805  12.932  1.00  0.00     0.161 A 
HETATM   19  N3  UNL     1      -3.831   7.082  13.210  1.00  0.00    -0.332 N 
HETATM   20  C10 UNL     1      -2.859   7.973  13.024  1.00  0.00     0.182 A 
ATOM     21  H3  UNL     1      -4.759   7.347  13.540  1.00  0.00     0.168 HD
HETATM   22  N4  UNL     1      -1.617   7.709  12.594  1.00  0.00    -0.351 N 
HETATM   23  C11 UNL     1      -1.323   6.432  12.317  1.00  0.00     0.050 A 
ATOM     24  H4  UNL     1      -0.925   8.450  12.483  1.00  0.00     0.166 HD
HETATM   25  C12 UNL     1      -0.047   6.119  11.863  1.00  0.00     0.070 A 
HETATM   26  C18 UNL     1      -2.250   5.398  12.466  1.00  0.00     0.045 A 
HETATM   27  C13 UNL     1       0.329   4.806  11.553  1.00  0.00     0.103 A 
HETATM   28  C15 UNL     1      -0.603   3.765  11.701  1.00  0.00     0.102 A 
HETATM   29  C17 UNL     1      -1.887   4.064  12.156  1.00  0.00     0.057 A 
BRANCH  27  30
HETATM   30  O3  UNL     1       1.573   4.442  11.103  1.00  0.00    -0.353 OA
HETATM   31  C14 UNL     1       2.328   5.410  10.387  1.00  0.00     0.210 C 
ENDBRANCH  27  30
BRANCH  28  32
HETATM   32  O4  UNL     1      -0.165   2.506  11.379  1.00  0.00    -0.353 OA
HETATM   33  C16 UNL     1      -1.134   1.546  10.983  1.00  0.00     0.210 C 
ENDBRANCH  28  32
ENDBRANCH   1  18
TORSDOF 7
ENDMDL
