MODEL 1
REMARK minimizedAffinity -10.0065098
REMARK  4 active torsions:
REMARK  status: ('A' for Active; 'I' for Inactive)
REMARK    1  A    between atoms: C4_4  and  C5_5 
REMARK    2  A    between atoms: C5_5  and  C6_7 
REMARK    3  A    between atoms: C6_7  and  C7_8 
REMARK    4  A    between atoms: C7_8  and  C9_10 
ROOT
HETATM    1  C9  UNL     1      -3.961  50.555 -24.687  1.00  0.00    -0.002 C 
HETATM    2  C10 UNL     1      -5.338  50.259 -24.019  1.00  0.00     0.006 C 
HETATM    3  C11 UNL     1      -5.146  50.376 -22.492  1.00  0.00     0.011 C 
HETATM    4  C12 UNL     1      -3.779  51.059 -22.319  1.00  0.00    -0.032 C 
HETATM    5  C13 UNL     1      -4.054  52.593 -22.530  1.00  0.00     0.016 C 
HETATM    6  C14 UNL     1      -3.050  50.934 -20.939  1.00  0.00     0.004 C 
HETATM    7  C15 UNL     1      -3.584  49.858 -19.988  1.00  0.00     0.007 C 
HETATM    8  C16 UNL     1      -2.847  49.809 -18.633  1.00  0.00     0.007 C 
HETATM    9  C17 UNL     1      -1.677  50.812 -18.475  1.00  0.00     0.010 C 
HETATM   10  C18 UNL     1      -0.821  50.595 -17.186  1.00  0.00     0.018 C 
HETATM   11  C19 UNL     1      -0.064  49.256 -17.178  1.00  0.00     0.023 C 
HETATM   12  C20 UNL     1      -1.705  50.676 -15.928  1.00  0.00     0.023 C 
HETATM   13  C21 UNL     1       0.227  51.716 -17.091  1.00  0.00     0.135 C 
HETATM   14  O2  UNL     1       0.872  51.919 -16.060  1.00  0.00    -0.297 OA
HETATM   15  C22 UNL     1       0.435  52.594 -18.302  1.00  0.00     0.080 C 
HETATM   16  C23 UNL     1       0.471  51.743 -19.559  1.00  0.00     0.018 C 
HETATM   17  C24 UNL     1      -0.786  50.903 -19.731  1.00  0.00    -0.026 A 
HETATM   18  C25 UNL     1      -0.671  49.687 -20.617  1.00  0.00     0.021 A 
HETATM   19  C26 UNL     1      -1.513  50.863 -21.091  1.00  0.00    -0.027 A 
HETATM   20  C27 UNL     1      -0.972  51.588 -22.312  1.00  0.00     0.011 C 
HETATM   21  C28 UNL     1      -1.611  51.135 -23.642  1.00  0.00     0.011 C 
HETATM   22  C29 UNL     1      -2.962  50.400 -23.491  1.00  0.00    -0.032 C 
HETATM   23  C30 UNL     1      -2.686  48.881 -23.286  1.00  0.00     0.016 C 
ENDROOT
BRANCH   1  24
HETATM   24  C7  UNL     1      -3.746  49.732 -25.989  1.00  0.00    -0.007 C 
HETATM   25  C8  UNL     1      -4.540  48.422 -25.998  1.00  0.00     0.011 C 
BRANCH  24  26
HETATM   26  C6  UNL     1      -2.255  49.444 -26.283  1.00  0.00     0.087 C 
BRANCH  26  27
HETATM   27  C5  UNL     1      -1.496  50.619 -26.874  1.00  0.00     0.149 C 
HETATM   28  O1  UNL     1      -2.014  51.385 -27.683  1.00  0.00    -0.293 OA
BRANCH  27  29
HETATM   29  C4  UNL     1      -0.078  50.793 -26.439  1.00  0.00     0.052 C 
HETATM   30  C2  UNL     1       0.885  51.386 -27.170  1.00  0.00    -0.084 C 
HETATM   31  C1  UNL     1       0.683  52.018 -28.521  1.00  0.00     0.043 C 
HETATM   32  C3  UNL     1       2.295  51.468 -26.650  1.00  0.00     0.043 C 
ENDBRANCH  27  29
ENDBRANCH  26  27
ENDBRANCH  24  26
ENDBRANCH   1  24
TORSDOF 4
ENDMDL
