MODEL 1
REMARK minimizedAffinity -6.51425219
REMARK CNNscore 0.680018961
REMARK CNNaffinity 6.75670671
REMARK  10 active torsions:
REMARK  status: ('A' for Active; 'I' for Inactive)
REMARK    1  A    between atoms: C2_2  and  O1_3 
REMARK    2  A    between atoms: O1_3  and  C3_4 
REMARK    3  A    between atoms: C3_4  and  C4_6 
REMARK    4  A    between atoms: C4_6  and  C5_7 
REMARK    5  A    between atoms: C5_7  and  C6_8 
REMARK    6  A    between atoms: C6_8  and  C8_10 
REMARK    7  A    between atoms: C13_15  and  O3_16 
REMARK    8  A    between atoms: C17_21  and  O4_22 
REMARK    9  A    between atoms: C24_29  and  O5_30 
REMARK   10  A    between atoms: O5_30  and  C25_31 
ROOT
HETATM    1  C8  UNL     1     -11.099   7.783  14.570  1.00  0.00     0.000 C 
HETATM    2  C9  UNL     1      -9.914   8.614  15.139  1.00  0.00     0.006 C 
HETATM    3  C10 UNL     1     -10.290  10.083  15.080  1.00  0.00     0.006 C 
HETATM    4  C11 UNL     1     -11.818  10.108  15.015  1.00  0.00     0.003 C 
HETATM    5  C12 UNL     1     -12.445  10.066  16.446  1.00  0.00     0.025 C 
HETATM    6  C13 UNL     1     -12.412  11.434  17.163  1.00  0.00     0.137 C 
HETATM    7  C14 UNL     1     -12.714  11.286  18.662  1.00  0.00     0.092 C 
HETATM    8 BR1  UNL     1     -11.044  11.328  19.712  1.00  0.00    -0.088 Br
HETATM    9  C15 UNL     1     -13.653  10.110  19.051  1.00  0.00     0.013 C 
HETATM   10  C16 UNL     1     -13.016   8.845  19.667  1.00  0.00     0.038 C 
HETATM   11  C17 UNL     1     -14.067   7.971  20.371  1.00  0.00     0.118 C 
HETATM   12  C18 UNL     1     -15.453   8.072  19.735  1.00  0.00     0.032 C 
HETATM   13  C19 UNL     1     -15.318   8.306  18.235  1.00  0.00     0.012 C 
HETATM   14  C20 UNL     1     -14.629   9.671  17.884  1.00  0.00    -0.035 C 
HETATM   15  C21 UNL     1     -15.768  10.732  17.820  1.00  0.00     0.016 C 
HETATM   16  C22 UNL     1     -13.937   9.642  16.443  1.00  0.00     0.003 C 
HETATM   17  C23 UNL     1     -14.115   8.355  15.637  1.00  0.00     0.039 C 
HETATM   18  C24 UNL     1     -13.637   8.530  14.194  1.00  0.00     0.141 C 
HETATM   19  C27 UNL     1     -12.125   8.880  14.079  1.00  0.00    -0.009 C 
HETATM   20  C28 UNL     1     -11.833   9.286  12.610  1.00  0.00     0.018 C 
ENDROOT
BRANCH   1  21
HETATM   21  C6  UNL     1     -10.523   6.681  13.605  1.00  0.00    -0.013 C 
HETATM   22  C7  UNL     1     -10.739   7.112  12.136  1.00  0.00     0.010 C 
BRANCH  21  23
HETATM   23  C5  UNL     1      -9.032   6.342  13.815  1.00  0.00     0.014 C 
BRANCH  23  24
HETATM   24  C4  UNL     1      -8.282   5.808  12.588  1.00  0.00     0.111 C 
BRANCH  24  25
HETATM   25  C3  UNL     1      -7.855   4.368  12.756  1.00  0.00     0.258 C 
HETATM   26  O2  UNL     1      -8.621   3.424  12.894  1.00  0.00    -0.265 OA
BRANCH  25  27
HETATM   27  O1  UNL     1      -6.495   4.284  12.765  1.00  0.00    -0.322 OA
BRANCH  27  28
HETATM   28  C2  UNL     1      -5.977   3.170  12.026  1.00  0.00     0.174 C 
HETATM   29  C1  UNL     1      -4.495   3.393  11.797  1.00  0.00     0.034 C 
ENDBRANCH  27  28
ENDBRANCH  25  27
ENDBRANCH  24  25
ENDBRANCH  23  24
ENDBRANCH  21  23
ENDBRANCH   1  21
BRANCH  18  30
HETATM   30  O5  UNL     1     -13.949   7.324  13.480  1.00  0.00    -0.316 OA
BRANCH  30  31
HETATM   31  C25 UNL     1     -15.059   7.341  12.690  1.00  0.00     0.255 C 
HETATM   32  C26 UNL     1     -16.043   6.322  13.181  1.00  0.00     0.126 C 
HETATM   33  O6  UNL     1     -15.243   8.069  11.725  1.00  0.00    -0.266 OA
ENDBRANCH  30  31
ENDBRANCH  18  30
BRANCH   6  34
HETATM   34  O3  UNL     1     -11.249  12.210  16.910  1.00  0.00    -0.394 OA
HETATM   35  H22 UNL     1     -10.547  11.881  17.501  1.00  0.00     0.210 HD
ENDBRANCH   6  34
BRANCH  11  36
HETATM   36  O4  UNL     1     -13.608   6.623  20.332  1.00  0.00    -0.396 OA
HETATM   37  H28 UNL     1     -14.223   6.086  20.859  1.00  0.00     0.210 HD
ENDBRANCH  11  36
TORSDOF 10
ENDMDL
