MODEL 1
REMARK minimizedAffinity -9.3771925
REMARK  6 active torsions:
REMARK  status: ('A' for Active; 'I' for Inactive)
REMARK    1  A    between atoms: C4_4  and  C5_5 
REMARK    2  A    between atoms: C5_5  and  O1_6 
REMARK    3  A    between atoms: C5_5  and  C6_7 
REMARK    4  A    between atoms: C6_7  and  C7_8 
REMARK    5  A    between atoms: C7_8  and  C9_10 
REMARK    6  A    between atoms: C30_32  and  O3_33 
ROOT
HETATM    1  C9  UNL     1      -1.866  51.259 -23.334  1.00  0.00    -0.002 C 
HETATM    2  C10 UNL     1      -2.905  52.156 -24.067  1.00  0.00     0.007 C 
HETATM    3  C11 UNL     1      -4.285  51.485 -23.925  1.00  0.00     0.015 C 
HETATM    4  C12 UNL     1      -3.992  50.070 -23.402  1.00  0.00    -0.010 C 
HETATM    5  C13 UNL     1      -3.646  49.196 -24.650  1.00  0.00     0.021 C 
HETATM    6  C14 UNL     1      -5.084  49.284 -22.673  1.00  0.00    -0.039 C 
HETATM    7  C15 UNL     1      -4.746  48.352 -21.741  1.00  0.00    -0.066 C 
HETATM    8  C16 UNL     1      -3.280  48.122 -21.342  1.00  0.00     0.036 C 
HETATM    9  C17 UNL     1      -2.208  49.007 -22.008  1.00  0.00     0.015 C 
HETATM   10  C18 UNL     1      -2.779  50.364 -22.436  1.00  0.00    -0.029 C 
HETATM   11  C19 UNL     1      -3.194  51.167 -21.165  1.00  0.00     0.016 C 
HETATM   12  C20 UNL     1      -5.803  47.450 -21.041  1.00  0.00    -0.015 C 
HETATM   13  C21 UNL     1      -5.645  46.036 -21.651  1.00  0.00     0.020 C 
HETATM   14  C22 UNL     1      -5.538  47.381 -19.510  1.00  0.00     0.021 C 
HETATM   15  C23 UNL     1      -6.733  46.992 -18.642  1.00  0.00     0.080 C 
HETATM   16  C24 UNL     1      -7.855  46.352 -19.423  1.00  0.00     0.135 C 
HETATM   17  O2  UNL     1      -8.347  45.288 -19.052  1.00  0.00    -0.297 OA
HETATM   18  C25 UNL     1      -8.398  47.135 -20.626  1.00  0.00     0.018 C 
HETATM   19  C26 UNL     1      -9.036  46.159 -21.635  1.00  0.00     0.023 C 
HETATM   20  C27 UNL     1      -9.526  48.042 -20.090  1.00  0.00     0.023 C 
HETATM   21  C28 UNL     1      -7.252  48.025 -21.229  1.00  0.00     0.016 C 
HETATM   22  C29 UNL     1      -7.489  48.433 -22.693  1.00  0.00     0.043 C 
HETATM   23  C30 UNL     1      -6.507  49.523 -23.122  1.00  0.00     0.148 C 
ENDROOT
BRANCH   1  24
HETATM   24  C7  UNL     1      -0.705  52.090 -22.705  1.00  0.00    -0.011 C 
HETATM   25  C8  UNL     1      -0.064  51.375 -21.507  1.00  0.00     0.010 C 
BRANCH  24  26
HETATM   26  C6  UNL     1       0.419  52.374 -23.750  1.00  0.00     0.040 C 
BRANCH  26  27
HETATM   27  C5  UNL     1       0.147  53.575 -24.677  1.00  0.00     0.141 C 
BRANCH  27  28
HETATM   28  C4  UNL     1       0.046  53.135 -26.117  1.00  0.00     0.006 C 
HETATM   29  C2  UNL     1       0.881  52.304 -26.779  1.00  0.00    -0.089 C 
HETATM   30  C1  UNL     1       0.664  51.999 -28.238  1.00  0.00     0.042 C 
HETATM   31  C3  UNL     1       2.062  51.600 -26.162  1.00  0.00     0.042 C 
ENDBRANCH  27  28
BRANCH  27  32
HETATM   32  O1  UNL     1       1.215  54.511 -24.555  1.00  0.00    -0.392 OA
HETATM   33  H9  UNL     1       1.584  54.658 -25.449  1.00  0.00     0.210 HD
ENDBRANCH  27  32
ENDBRANCH  26  27
ENDBRANCH  24  26
ENDBRANCH   1  24
BRANCH  23  34
HETATM   34  O3  UNL     1      -6.963  50.761 -22.581  1.00  0.00    -0.391 OA
HETATM   35  H48 UNL     1      -6.482  50.909 -21.748  1.00  0.00     0.210 HD
ENDBRANCH  23  34
TORSDOF 6
ENDMDL
