MODEL 1
REMARK minimizedAffinity -9.32522297
REMARK CNNscore 0.534228146
REMARK CNNaffinity 6.88172007
REMARK  11 active torsions:
REMARK  status: ('A' for Active; 'I' for Inactive)
REMARK    1  A    between atoms: C19_20  and  O2_21 
REMARK    2  A    between atoms: C19_20  and  C20_22 
REMARK    3  A    between atoms: C20_22  and  C21_24 
REMARK    4  A    between atoms: C21_24  and  O4_25 
REMARK    5  A    between atoms: O4_25  and  C22_26 
REMARK    6  A    between atoms: C22_26  and  C23_28 
REMARK    7  A    between atoms: C23_28  and  C24_29 
REMARK    8  A    between atoms: C24_29  and  C25_30 
REMARK       I    between atoms: C25_30  and  N1_32 
REMARK    9  A    between atoms: N1_32  and  C26_33 
REMARK   10  A    between atoms: C26_33  and  C27_34 
REMARK   11  A    between atoms: C27_34  and  C28_35 
ROOT
HETATM    1  C20 UNL     1      -1.787   7.711  15.063  1.00  0.00     0.185 C 
HETATM    2  O3  UNL     1      -0.797   7.924  15.782  1.00  0.00    -0.292 OA
ENDROOT
BRANCH   1   3
HETATM    3  C19 UNL     1      -1.605   7.670  13.523  1.00  0.00     0.128 C 
HETATM    4  C14 UNL     1      -0.188   7.449  12.907  1.00  0.00    -0.002 C 
HETATM    5  C13 UNL     1       0.371   6.017  12.987  1.00  0.00     0.013 C 
HETATM    6  C15 UNL     1       0.864   8.438  13.468  1.00  0.00     0.019 C 
HETATM    7  C16 UNL     1      -0.513   7.729  11.413  1.00  0.00     0.002 C 
HETATM    8  C12 UNL     1       1.600   5.828  12.077  1.00  0.00     0.007 C 
HETATM    9  C11 UNL     1       1.344   6.235  10.600  1.00  0.00     0.002 C 
HETATM   10  C2  UNL     1       2.597   6.047   9.658  1.00  0.00    -0.016 C 
HETATM   11  C10 UNL     1       0.713   7.658  10.492  1.00  0.00    -0.004 C 
HETATM   12  C1  UNL     1       3.822   6.842  10.162  1.00  0.00     0.020 C 
HETATM   13  C3  UNL     1       2.952   4.532   9.618  1.00  0.00     0.022 C 
HETATM   14  C7  UNL     1       2.261   6.537   8.243  1.00  0.00    -0.068 C 
HETATM   15  C4  UNL     1       3.911   4.151   8.499  1.00  0.00     0.084 C 
HETATM   16  C5  UNL     1       3.391   4.621   7.167  1.00  0.00     0.149 C 
HETATM   17  O1  UNL     1       3.670   4.045   6.117  1.00  0.00    -0.293 OA
HETATM   18  C6  UNL     1       2.589   5.865   7.125  1.00  0.00     0.053 C 
HETATM   19  C8  UNL     1       1.555   7.867   8.126  1.00  0.00     0.035 C 
HETATM   20  C9  UNL     1       0.335   7.952   9.034  1.00  0.00     0.010 C 
HETATM   21  C17 UNL     1      -1.320   9.022  11.469  1.00  0.00     0.009 C 
HETATM   22  C18 UNL     1      -2.148   8.900  12.765  1.00  0.00     0.047 C 
BRANCH   3  23
HETATM   23  O2  UNL     1      -2.433   6.553  13.090  1.00  0.00    -0.381 OA
HETATM   24  H27 UNL     1      -3.157   6.488  13.748  1.00  0.00     0.211 HD
ENDBRANCH   3  23
ENDBRANCH   1   3
BRANCH   1  25
HETATM   25  C21 UNL     1      -3.149   7.531  15.728  1.00  0.00     0.260 C 
BRANCH  25  26
HETATM   26  O4  UNL     1      -4.303   7.570  14.904  1.00  0.00    -0.314 OA
BRANCH  26  27
HETATM   27  C22 UNL     1      -5.045   6.427  14.881  1.00  0.00     0.259 C 
HETATM   28  O5  UNL     1      -4.882   5.498  14.105  1.00  0.00    -0.265 OA
BRANCH  27  29
HETATM   29  C23 UNL     1      -6.053   6.431  16.005  1.00  0.00     0.120 C 
BRANCH  29  30
HETATM   30  C24 UNL     1      -7.391   5.871  15.540  1.00  0.00     0.112 C 
BRANCH  30  31
HETATM   31  C25 UNL     1      -8.337   6.965  15.083  1.00  0.00     0.218 C 
HETATM   32  O6  UNL     1      -7.949   8.013  14.580  1.00  0.00    -0.274 OA
HETATM   33  N1  UNL     1      -9.657   6.677  15.344  1.00  0.00    -0.361 N 
HETATM   34  H34 UNL     1      -9.885   5.827  15.847  1.00  0.00     0.162 HD
BRANCH  33  35
HETATM   35  C26 UNL     1     -10.736   7.609  15.056  1.00  0.00     0.127 C 
BRANCH  35  36
HETATM   36  C27 UNL     1     -11.035   7.725  13.559  1.00  0.00     0.060 C 
BRANCH  36  37
HETATM   37  C28 UNL     1     -12.493   7.858  13.247  1.00  0.00    -0.029 A 
HETATM   38  C29 UNL     1     -13.077   8.890  12.536  1.00  0.00     0.096 A 
HETATM   39  N2  UNL     1     -14.425   8.666  12.474  1.00  0.00    -0.365 N 
HETATM   40  C30 UNL     1     -14.744   7.507  13.140  1.00  0.00     0.042 A 
HETATM   41  H40 UNL     1     -15.094   9.256  12.000  1.00  0.00     0.165 HD
HETATM   42  C31 UNL     1     -15.990   6.899  13.337  1.00  0.00     0.030 A 
HETATM   43  C35 UNL     1     -13.551   6.968  13.624  1.00  0.00    -0.002 A 
HETATM   44  C32 UNL     1     -16.014   5.688  14.034  1.00  0.00     0.002 A 
HETATM   45  C33 UNL     1     -14.842   5.119  14.524  1.00  0.00     0.001 A 
HETATM   46  C34 UNL     1     -13.607   5.751  14.335  1.00  0.00     0.014 A 
ENDBRANCH  36  37
ENDBRANCH  35  36
ENDBRANCH  33  35
ENDBRANCH  30  31
ENDBRANCH  29  30
ENDBRANCH  27  29
ENDBRANCH  26  27
ENDBRANCH  25  26
ENDBRANCH   1  25
TORSDOF 11
ENDMDL
