MODEL 1
REMARK minimizedAffinity -6.78765726
REMARK CNNscore 0.507730186
REMARK CNNaffinity 6.85015106
REMARK  19 active torsions:
REMARK  status: ('A' for Active; 'I' for Inactive)
REMARK    1  A    between atoms: C2_2  and  C3_3 
REMARK    2  A    between atoms: C2_2  and  C30_37 
REMARK    3  A    between atoms: C4_4  and  C5_5 
REMARK    4  A    between atoms: C6_6  and  C7_7 
REMARK    5  A    between atoms: C6_6  and  C11_14 
REMARK    6  A    between atoms: C7_7  and  O1_8 
REMARK    7  A    between atoms: O1_8  and  C8_9 
REMARK    8  A    between atoms: C8_9  and  C9_10 
REMARK    9  A    between atoms: C9_10  and  O2_11 
REMARK   10  A    between atoms: C9_10  and  C10_12 
REMARK   11  A    between atoms: C10_12  and  O3_13 
REMARK   12  A    between atoms: C17_20  and  C19_22 
REMARK   13  A    between atoms: C22_26  and  O5_28 
REMARK   14  A    between atoms: C24_29  and  C25_30 
REMARK   15  A    between atoms: C25_30  and  C26_31 
REMARK   16  A    between atoms: C26_31  and  O6_32 
REMARK   17  A    between atoms: C29_35  and  O7_36 
REMARK   18  A    between atoms: C30_37  and  C31_38 
REMARK   19  A    between atoms: C31_38  and  C32_39 
ROOT
HETATM    1  C11 UNL     1     -11.654   9.880  14.443  1.00  0.00     0.052 C 
HETATM    2  C12 UNL     1     -12.628  11.038  14.177  1.00  0.00     0.013 C 
HETATM    3  C13 UNL     1     -13.736  10.850  15.191  1.00  0.00     0.017 C 
HETATM    4  C14 UNL     1     -13.944   9.301  15.352  1.00  0.00     0.030 C 
HETATM    5  C15 UNL     1     -14.728   8.727  14.096  1.00  0.00     0.033 C 
HETATM    6  C16 UNL     1     -16.117   9.361  13.983  1.00  0.00    -0.066 C 
HETATM    7  C17 UNL     1     -16.663   9.831  12.829  1.00  0.00    -0.021 C 
HETATM    8  C18 UNL     1     -17.963  10.589  12.736  1.00  0.00     0.052 C 
HETATM    9  C20 UNL     1     -16.832   9.568  15.308  1.00  0.00     0.038 C 
HETATM   10  C21 UNL     1     -16.251   8.771  16.464  1.00  0.00     0.042 C 
HETATM   11  C22 UNL     1     -14.747   9.005  16.702  1.00  0.00     0.066 C 
HETATM   12  C23 UNL     1     -14.610  10.082  17.803  1.00  0.00     0.047 C 
HETATM   13  C24 UNL     1     -14.613   7.176  13.852  1.00  0.00    -0.003 C 
HETATM   14  C27 UNL     1     -13.473   6.535  14.662  1.00  0.00     0.008 C 
HETATM   15  C28 UNL     1     -12.228   7.401  14.698  1.00  0.00     0.040 C 
HETATM   16  C29 UNL     1     -12.447   8.807  15.302  1.00  0.00     0.076 C 
ENDROOT
BRANCH   1  17
HETATM   17  C6  UNL     1     -10.280  10.305  14.989  1.00  0.00    -0.049 C 
HETATM   18  C5  UNL     1      -9.248   9.448  15.169  1.00  0.00     0.005 C 
BRANCH  18  19
HETATM   19  C4  UNL     1      -9.201   8.032  14.881  1.00  0.00     0.001 C 
HETATM   20  C3  UNL     1      -8.049   7.341  14.842  1.00  0.00     0.006 C 
BRANCH  20  21
HETATM   21  C2  UNL     1      -7.907   5.926  14.513  1.00  0.00    -0.067 C 
HETATM   22  C1  UNL     1      -7.568   5.053  15.480  1.00  0.00     0.019 C 
BRANCH  21  23
HETATM   23  C30 UNL     1      -8.084   5.451  13.082  1.00  0.00     0.041 C 
BRANCH  23  24
HETATM   24  C31 UNL     1      -7.500   4.051  12.848  1.00  0.00     0.032 C 
BRANCH  24  25
HETATM   25  C32 UNL     1      -6.061   4.043  12.403  1.00  0.00    -0.024 C 
HETATM   26  C33 UNL     1      -5.394   3.050  11.782  1.00  0.00    -0.091 C 
HETATM   27  C34 UNL     1      -6.006   1.741  11.374  1.00  0.00     0.042 C 
HETATM   28  C35 UNL     1      -3.936   3.205  11.432  1.00  0.00     0.042 C 
ENDBRANCH  24  25
ENDBRANCH  23  24
ENDBRANCH  21  23
ENDBRANCH  20  21
ENDBRANCH  18  19
BRANCH  17  29
HETATM   29  C7  UNL     1     -10.115  11.788  15.335  1.00  0.00     0.202 C 
BRANCH  29  30
HETATM   30  O1  UNL     1      -8.840  12.069  15.926  1.00  0.00    -0.384 OA
BRANCH  30  31
HETATM   31  C8  UNL     1      -8.875  13.248  16.750  1.00  0.00     0.201 C 
BRANCH  31  32
HETATM   32  C9  UNL     1      -7.469  13.857  16.738  1.00  0.00     0.165 C 
BRANCH  32  33
HETATM   33  O2  UNL     1      -7.240  14.509  17.998  1.00  0.00    -0.391 OA
HETATM   34  H11 UNL     1      -7.514  13.851  18.670  1.00  0.00     0.210 HD
ENDBRANCH  32  33
BRANCH  32  35
HETATM   35  C10 UNL     1      -7.292  14.882  15.620  1.00  0.00     0.198 C 
BRANCH  35  36
HETATM   36  O3  UNL     1      -7.672  14.316  14.366  1.00  0.00    -0.398 OA
HETATM   37  H14 UNL     1      -8.566  13.946  14.519  1.00  0.00     0.209 HD
ENDBRANCH  35  36
ENDBRANCH  32  35
ENDBRANCH  31  32
ENDBRANCH  30  31
ENDBRANCH  29  30
ENDBRANCH  17  29
ENDBRANCH   1  17
BRANCH  16  38
HETATM   38  O7  UNL     1     -11.941   8.772  16.647  1.00  0.00    -0.388 OA
HETATM   39  H43 UNL     1     -11.007   8.490  16.600  1.00  0.00     0.210 HD
ENDBRANCH  16  38
BRANCH  11  40
HETATM   40  O5  UNL     1     -14.272   7.808  17.333  1.00  0.00    -0.389 OA
HETATM   41  H32 UNL     1     -13.305   7.936  17.440  1.00  0.00     0.210 HD
ENDBRANCH  11  40
BRANCH  13  42
HETATM   42  C25 UNL     1     -15.851   6.246  13.952  1.00  0.00     0.031 C 
BRANCH  42  43
HETATM   43  C26 UNL     1     -16.707   6.061  12.704  1.00  0.00     0.164 C 
BRANCH  43  44
HETATM   44  O6  UNL     1     -15.959   6.364  11.537  1.00  0.00    -0.401 OA
HETATM   45  H38 UNL     1     -16.531   6.174  10.772  1.00  0.00     0.209 HD
ENDBRANCH  43  44
ENDBRANCH  42  43
ENDBRANCH  13  42
BRANCH   7  46
HETATM   46  C19 UNL     1     -16.019   9.633  11.490  1.00  0.00     0.265 C 
HETATM   47  O4  UNL     1     -16.496   8.897  10.631  1.00  0.00    -0.302 OA
ENDBRANCH   7  46
TORSDOF 19
ENDMDL
