MODEL 1
REMARK minimizedAffinity -7.48892403
REMARK CNNscore 0.644987106
REMARK CNNaffinity 6.6926384
REMARK  6 active torsions:
REMARK  status: ('A' for Active; 'I' for Inactive)
REMARK    1  A    between atoms: C2_2  and  C30_31 
REMARK    2  A    between atoms: C3_3  and  C4_4 
REMARK    3  A    between atoms: C4_4  and  C5_5 
REMARK    4  A    between atoms: C5_5  and  C6_6 
REMARK    5  A    between atoms: C6_6  and  C8_8 
REMARK    6  A    between atoms: C30_31  and  O3_33 
ROOT
HETATM    1  C8  UNL     1      -0.766   8.168  14.040  1.00  0.00    -0.002 C 
HETATM    2  C9  UNL     1      -1.117   7.067  15.075  1.00  0.00     0.007 C 
HETATM    3  C10 UNL     1      -1.792   7.783  16.268  1.00  0.00     0.015 C 
HETATM    4  C11 UNL     1      -1.518   9.288  16.041  1.00  0.00    -0.013 C 
HETATM    5  C12 UNL     1      -0.085   9.553  16.612  1.00  0.00     0.021 C 
HETATM    6  C13 UNL     1      -2.421  10.314  16.713  1.00  0.00    -0.070 C 
HETATM    7  C14 UNL     1      -2.979  10.100  17.920  1.00  0.00    -0.022 C 
HETATM    8  C15 UNL     1      -3.750  11.131  18.693  1.00  0.00     0.034 C 
HETATM    9  C16 UNL     1      -4.074  12.412  17.891  1.00  0.00     0.013 C 
HETATM   10  C17 UNL     1      -4.768  13.570  18.707  1.00  0.00     0.018 C 
HETATM   11  C18 UNL     1      -6.208  13.773  18.187  1.00  0.00     0.023 C 
HETATM   12  C19 UNL     1      -4.869  13.282  20.220  1.00  0.00     0.023 C 
HETATM   13  C20 UNL     1      -4.061  14.920  18.524  1.00  0.00     0.135 C 
HETATM   14  O1  UNL     1      -3.956  15.733  19.447  1.00  0.00    -0.297 OA
HETATM   15  C21 UNL     1      -3.567  15.306  17.148  1.00  0.00     0.080 C 
HETATM   16  C22 UNL     1      -3.262  14.122  16.245  1.00  0.00     0.017 C 
HETATM   17  C23 UNL     1      -2.848  12.843  17.008  1.00  0.00    -0.031 C 
HETATM   18  C24 UNL     1      -1.577  13.121  17.851  1.00  0.00     0.016 C 
HETATM   19  C25 UNL     1      -2.590  11.659  15.991  1.00  0.00     0.024 C 
HETATM   20  C26 UNL     1      -1.491  11.935  14.934  1.00  0.00     0.010 C 
HETATM   21  C27 UNL     1      -1.129  10.754  14.000  1.00  0.00     0.011 C 
HETATM   22  C28 UNL     1      -1.642   9.382  14.482  1.00  0.00    -0.029 C 
HETATM   23  C29 UNL     1      -3.096   9.193  13.956  1.00  0.00     0.016 C 
ENDROOT
BRANCH   1  24
HETATM   24  C6  UNL     1      -0.764   7.749  12.539  1.00  0.00    -0.014 C 
HETATM   25  C7  UNL     1      -1.195   8.967  11.698  1.00  0.00     0.010 C 
BRANCH  24  26
HETATM   26  C5  UNL     1       0.582   7.202  11.999  1.00  0.00     0.008 C 
BRANCH  26  27
HETATM   27  C4  UNL     1       0.521   6.659  10.562  1.00  0.00     0.028 C 
BRANCH  27  28
HETATM   28  C3  UNL     1       1.122   7.554   9.517  1.00  0.00    -0.013 C 
HETATM   29  C2  UNL     1       2.248   7.366   8.799  1.00  0.00     0.008 C 
HETATM   30  C1  UNL     1       2.682   8.369   7.766  1.00  0.00     0.055 C 
BRANCH  29  31
HETATM   31  C30 UNL     1       3.131   6.190   9.007  1.00  0.00     0.171 C 
HETATM   32  O2  UNL     1       4.025   6.066   9.825  1.00  0.00    -0.646 OA
BRANCH  31  33
HETATM   33  O3  UNL     1       2.849   5.191   8.151  1.00  0.00    -0.773 OA
HETATM   34  H46 UNL     1       3.492   4.496   8.402  1.00  0.00     0.167 HD
ENDBRANCH  31  33
ENDBRANCH  29  31
ENDBRANCH  27  28
ENDBRANCH  26  27
ENDBRANCH  24  26
ENDBRANCH   1  24
TORSDOF 6
ENDMDL
