MODEL 1
REMARK minimizedAffinity -7.25633049
REMARK CNNscore 0.524503887
REMARK CNNaffinity 6.59866953
REMARK  7 active torsions:
REMARK  status: ('A' for Active; 'I' for Inactive)
REMARK    1  A    between atoms: C2_2  and  C3_3 
REMARK    2  A    between atoms: C2_2  and  C9_11 
REMARK    3  A    between atoms: C3_3  and  C4_4 
REMARK    4  A    between atoms: C5_5  and  C6_6 
REMARK    5  A    between atoms: C6_6  and  O1_9 
REMARK    6  A    between atoms: O1_9  and  O2_10 
REMARK    7  A    between atoms: C10_12  and  O3_13 
ROOT
HETATM    1  C9  UNL     1      -8.685  45.894 -34.339  1.00  0.00     0.028 C 
HETATM    2  C10 UNL     1      -8.993  44.360 -34.317  1.00  0.00     0.124 C 
HETATM    3  C11 UNL     1      -9.115  43.931 -32.840  1.00  0.00     0.046 C 
HETATM    4  C12 UNL     1      -8.499  45.099 -32.045  1.00  0.00    -0.010 C 
HETATM    5  C13 UNL     1      -6.949  44.899 -32.074  1.00  0.00     0.021 C 
HETATM    6  C14 UNL     1      -8.870  45.228 -30.567  1.00  0.00    -0.070 C 
HETATM    7  C15 UNL     1      -9.065  44.145 -29.787  1.00  0.00    -0.022 C 
HETATM    8  C16 UNL     1      -9.334  44.194 -28.308  1.00  0.00     0.034 C 
HETATM    9  C17 UNL     1      -9.628  45.622 -27.821  1.00  0.00     0.013 C 
HETATM   10  C18 UNL     1      -9.932  45.776 -26.297  1.00  0.00     0.018 C 
HETATM   11  C19 UNL     1     -11.087  44.837 -25.886  1.00  0.00     0.023 C 
HETATM   12  C20 UNL     1      -8.741  45.508 -25.368  1.00  0.00     0.023 C 
HETATM   13  C21 UNL     1     -10.404  47.221 -26.049  1.00  0.00     0.135 C 
HETATM   14  O4  UNL     1     -10.946  47.560 -24.996  1.00  0.00    -0.297 OA
HETATM   15  C22 UNL     1     -10.199  48.229 -27.162  1.00  0.00     0.080 C 
HETATM   16  C23 UNL     1      -8.816  48.049 -27.770  1.00  0.00     0.017 C 
HETATM   17  C24 UNL     1      -8.599  46.654 -28.430  1.00  0.00    -0.031 C 
HETATM   18  C25 UNL     1      -7.113  46.266 -28.206  1.00  0.00     0.016 C 
HETATM   19  C26 UNL     1      -8.906  46.659 -29.986  1.00  0.00     0.024 C 
HETATM   20  C27 UNL     1      -8.067  47.649 -30.830  1.00  0.00     0.010 C 
HETATM   21  C28 UNL     1      -8.318  47.604 -32.357  1.00  0.00     0.011 C 
HETATM   22  C29 UNL     1      -9.025  46.328 -32.866  1.00  0.00    -0.026 C 
HETATM   23  C30 UNL     1     -10.572  46.526 -32.763  1.00  0.00     0.016 C 
ENDROOT
BRANCH   1  24
HETATM   24  C2  UNL     1      -9.390  46.643 -35.522  1.00  0.00    -0.008 C 
HETATM   25  C1  UNL     1      -8.369  47.332 -36.441  1.00  0.00     0.011 C 
BRANCH  24  26
HETATM   26  C3  UNL     1     -10.278  45.679 -36.353  1.00  0.00     0.031 C 
BRANCH  26  27
HETATM   27  C4  UNL     1     -11.582  46.283 -36.795  1.00  0.00    -0.027 C 
HETATM   28  C5  UNL     1     -11.690  47.436 -37.478  1.00  0.00     0.009 C 
BRANCH  28  29
HETATM   29  C6  UNL     1     -12.974  48.095 -37.954  1.00  0.00     0.106 C 
HETATM   30  C7  UNL     1     -14.100  47.713 -36.983  1.00  0.00     0.053 C 
HETATM   31  C8  UNL     1     -13.350  47.613 -39.363  1.00  0.00     0.053 C 
BRANCH  29  32
HETATM   32  O1  UNL     1     -12.903  49.536 -37.909  1.00  0.00    -0.229 OA
BRANCH  32  33
HETATM   33  O2  UNL     1     -11.496  49.925 -37.814  1.00  0.00    -0.249 OA
HETATM   34  H15 UNL     1     -11.478  50.456 -38.629  1.00  0.00     0.253 HD
ENDBRANCH  32  33
ENDBRANCH  29  32
ENDBRANCH  28  29
ENDBRANCH  26  27
ENDBRANCH  24  26
ENDBRANCH   1  24
BRANCH   2  35
HETATM   35  O3  UNL     1      -7.924  43.622 -34.902  1.00  0.00    -0.395 OA
HETATM   36  H18 UNL     1      -7.817  43.904 -35.824  1.00  0.00     0.210 HD
ENDBRANCH   2  35
TORSDOF 7
ENDMDL
