MODEL 1
REMARK minimizedAffinity -9.296422
REMARK  11 active torsions:
REMARK  status: ('A' for Active; 'I' for Inactive)
REMARK    1  A    between atoms: C6_6  and  C8_8 
REMARK    2  A    between atoms: C8_8  and  O1_9 
REMARK    3  A    between atoms: O1_9  and  C9_10 
REMARK    4  A    between atoms: C10_12  and  C11_13 
REMARK    5  A    between atoms: C11_13  and  O3_14 
REMARK    6  A    between atoms: C12_15  and  O4_16 
REMARK    7  A    between atoms: C13_17  and  O5_18 
REMARK    8  A    between atoms: C14_19  and  O6_20 
REMARK    9  A    between atoms: C20_26  and  C21_27 
REMARK   10  A    between atoms: C21_27  and  C22_28 
REMARK   11  A    between atoms: C26_34  and  O9_35 
ROOT
HETATM    1  C1  UNL     1       2.208   8.869  13.037  1.00  0.00     0.015 C 
HETATM    2  C2  UNL     1       0.964   8.536  12.651  1.00  0.00    -0.084 C 
HETATM    3  C3  UNL     1      -0.249   9.290  13.132  1.00  0.00     0.034 C 
HETATM    4  C4  UNL     1      -1.281   8.357  13.769  1.00  0.00     0.010 C 
HETATM    5  C5  UNL     1      -1.596   7.116  12.895  1.00  0.00     0.005 C 
HETATM    6  C6  UNL     1      -2.775   6.228  13.459  1.00  0.00    -0.018 C 
HETATM    7  C7  UNL     1      -2.776   6.101  14.999  1.00  0.00     0.018 C 
HETATM    8  C15 UNL     1      -2.729   4.793  12.863  1.00  0.00     0.012 C 
HETATM    9  C16 UNL     1      -2.093   4.766  11.481  1.00  0.00     0.002 C 
HETATM   10  C17 UNL     1      -0.608   5.105  11.575  1.00  0.00     0.010 C 
HETATM   11  C18 UNL     1      -0.289   6.342  12.477  1.00  0.00    -0.032 C 
HETATM   12  C19 UNL     1       0.460   5.784  13.723  1.00  0.00     0.016 C 
HETATM   13  C20 UNL     1       0.687   7.346  11.733  1.00  0.00     0.025 C 
ENDROOT
BRANCH   6  14
HETATM   14  C8  UNL     1      -4.116   6.911  13.039  1.00  0.00     0.180 C 
BRANCH  14  15
HETATM   15  O1  UNL     1      -4.819   7.411  14.179  1.00  0.00    -0.358 OA
BRANCH  15  16
HETATM   16  C9  UNL     1      -6.239   7.299  14.029  1.00  0.00     0.291 C 
HETATM   17  O2  UNL     1      -6.586   5.946  13.748  1.00  0.00    -0.348 OA
HETATM   18  C10 UNL     1      -8.002   5.769  13.593  1.00  0.00     0.179 C 
HETATM   19  C12 UNL     1      -8.734   6.075  14.909  1.00  0.00     0.180 C 
HETATM   20  C13 UNL     1      -8.379   7.499  15.375  1.00  0.00     0.183 C 
HETATM   21  C14 UNL     1      -6.871   7.772  15.353  1.00  0.00     0.204 C 
BRANCH  18  22
HETATM   22  C11 UNL     1      -8.257   4.340  13.108  1.00  0.00     0.198 C 
BRANCH  22  23
HETATM   23  O3  UNL     1      -7.043   3.596  13.115  1.00  0.00    -0.398 OA
HETATM   24  H17 UNL     1      -7.266   2.693  12.826  1.00  0.00     0.209 HD
ENDBRANCH  22  23
ENDBRANCH  18  22
BRANCH  19  25
HETATM   25  O4  UNL     1      -8.376   5.125  15.923  1.00  0.00    -0.390 OA
HETATM   26  H19 UNL     1      -8.729   5.491  16.757  1.00  0.00     0.210 HD
ENDBRANCH  19  25
BRANCH  20  27
HETATM   27  O5  UNL     1      -8.877   7.697  16.709  1.00  0.00    -0.390 OA
HETATM   28  H21 UNL     1      -8.103   7.517  17.287  1.00  0.00     0.210 HD
ENDBRANCH  20  27
BRANCH  21  29
HETATM   29  O6  UNL     1      -6.280   7.113  16.497  1.00  0.00    -0.388 OA
HETATM   30  H23 UNL     1      -5.409   6.790  16.184  1.00  0.00     0.210 HD
ENDBRANCH  21  29
ENDBRANCH  15  16
ENDBRANCH  14  15
ENDBRANCH   6  14
BRANCH  13  31
HETATM   31  C21 UNL     1       0.186   7.847  10.345  1.00  0.00     0.037 C 
BRANCH  31  32
HETATM   32  C22 UNL     1       0.984   7.308   9.186  1.00  0.00    -0.010 C 
HETATM   33  C23 UNL     1       1.975   6.402   9.257  1.00  0.00     0.044 C 
HETATM   34  C24 UNL     1       2.672   5.930   8.036  1.00  0.00     0.291 C 
HETATM   35  C26 UNL     1       2.610   5.719  10.411  1.00  0.00     0.181 C 
HETATM   36  O7  UNL     1       2.320   6.106   6.885  1.00  0.00    -0.260 OA
HETATM   37  O8  UNL     1       3.771   5.221   8.422  1.00  0.00    -0.315 OA
HETATM   38  C25 UNL     1       3.965   5.385   9.825  1.00  0.00     0.215 C 
BRANCH  35  39
HETATM   39  O9  UNL     1       2.714   6.550  11.554  1.00  0.00    -0.389 OA
HETATM   40  H40 UNL     1       3.232   6.075  12.226  1.00  0.00     0.210 HD
ENDBRANCH  35  39
ENDBRANCH  31  32
ENDBRANCH  13  31
TORSDOF 11
ENDMDL
