MODEL 1
REMARK minimizedAffinity -9.48936176
REMARK CNNscore 0.344620585
REMARK CNNaffinity 6.78010511
REMARK  12 active torsions:
REMARK  status: ('A' for Active; 'I' for Inactive)
REMARK    1  A    between atoms: C3_3  and  O1_4 
REMARK    2  A    between atoms: N1_14  and  O2_16 
REMARK    3  A    between atoms: O2_16  and  C13_17 
REMARK    4  A    between atoms: C13_17  and  C14_18 
REMARK       I    between atoms: C14_18  and  N2_20 
REMARK    5  A    between atoms: N2_20  and  C15_21 
REMARK    6  A    between atoms: C15_21  and  C16_22 
REMARK    7  A    between atoms: C15_21  and  C26_36 
REMARK       I    between atoms: C16_22  and  N3_24 
REMARK    8  A    between atoms: N3_24  and  C17_25 
REMARK    9  A    between atoms: C17_25  and  C18_26 
REMARK   10  A    between atoms: C17_25  and  C25_33 
REMARK   11  A    between atoms: C18_26  and  C19_27 
REMARK   12  A    between atoms: C25_33  and  O6_35 
ROOT
HETATM    1  C1  UNL     1       2.967   5.279   7.861  1.00  0.00     0.015 C 
HETATM    2  C2  UNL     1       2.804   6.292   8.491  1.00  0.00    -0.078 C 
HETATM    3  C3  UNL     1       2.634   7.558   9.240  1.00  0.00     0.128 C 
HETATM    4  C4  UNL     1       1.561   8.414   8.572  1.00  0.00     0.052 C 
HETATM    5  C5  UNL     1       0.263   7.830   9.108  1.00  0.00     0.010 C 
HETATM    6  C6  UNL     1       0.529   7.550  10.607  1.00  0.00     0.002 C 
HETATM    7  C7  UNL     1      -0.052   8.693  11.486  1.00  0.00    -0.004 C 
HETATM    8  C8  UNL     1      -1.592   8.797  11.456  1.00  0.00     0.010 C 
HETATM    9  C9  UNL     1      -2.295   7.876  12.434  1.00  0.00     0.035 C 
HETATM   10  C10 UNL     1      -1.806   8.125  13.834  1.00  0.00    -0.069 C 
HETATM   11  C11 UNL     1      -2.668   8.478  14.804  1.00  0.00     0.030 C 
HETATM   12  C12 UNL     1      -2.230   8.648  16.214  1.00  0.00     0.032 C 
HETATM   13  N1  UNL     1      -3.074   9.184  17.049  1.00  0.00    -0.271 N 
ATOM     14  H1  UNL     1      -4.009   9.503  16.792  1.00  0.00     0.194 HD
HETATM   15  C29 UNL     1      -0.842   8.155  16.566  1.00  0.00     0.060 C 
HETATM   16  C30 UNL     1       0.121   8.509  15.439  1.00  0.00     0.020 C 
HETATM   17  C31 UNL     1      -0.305   7.945  14.047  1.00  0.00    -0.016 C 
HETATM   18  C32 UNL     1      -0.024   6.426  14.026  1.00  0.00     0.020 C 
HETATM   19  C33 UNL     1       0.492   8.752  12.942  1.00  0.00     0.002 C 
HETATM   20  C34 UNL     1       2.022   8.551  13.011  1.00  0.00     0.007 C 
HETATM   21  C35 UNL     1       2.694   8.489  11.641  1.00  0.00     0.014 C 
HETATM   22  C36 UNL     1       2.094   7.393  10.714  1.00  0.00     0.003 C 
HETATM   23  C37 UNL     1       2.463   6.008  11.289  1.00  0.00     0.020 C 
ENDROOT
BRANCH   3  24
HETATM   24  O1  UNL     1       3.876   8.249   9.206  1.00  0.00    -0.377 OA
HETATM   25  H2  UNL     1       4.205   8.197   8.290  1.00  0.00     0.211 HD
ENDBRANCH   3  24
BRANCH  13  26
HETATM   26  O2  UNL     1      -2.544   9.271  18.344  1.00  0.00    -0.271 OA
BRANCH  26  27
HETATM   27  C13 UNL     1      -2.517  10.636  18.755  1.00  0.00     0.303 C 
BRANCH  27  28
HETATM   28  C14 UNL     1      -1.179  11.289  18.441  1.00  0.00     0.244 C 
HETATM   29  O3  UNL     1      -0.931  11.781  17.342  1.00  0.00    -0.271 OA
HETATM   30  N2  UNL     1      -0.306  11.347  19.509  1.00  0.00    -0.346 N 
HETATM   31  H16 UNL     1      -0.461  10.630  20.217  1.00  0.00     0.163 HD
BRANCH  30  32
HETATM   32  C15 UNL     1       1.072  11.797  19.319  1.00  0.00     0.180 C 
BRANCH  32  33
HETATM   33  C16 UNL     1       2.006  10.648  19.757  1.00  0.00     0.241 C 
HETATM   34  O4  UNL     1       2.540   9.878  18.955  1.00  0.00    -0.271 OA
HETATM   35  N3  UNL     1       2.201  10.554  21.116  1.00  0.00    -0.345 N 
HETATM   36  H18 UNL     1       1.558  11.036  21.735  1.00  0.00     0.163 HD
BRANCH  35  37
HETATM   37  C17 UNL     1       3.006   9.487  21.715  1.00  0.00     0.186 C 
BRANCH  37  38
HETATM   38  C18 UNL     1       4.313  10.030  22.320  1.00  0.00     0.074 C 
BRANCH  38  39
HETATM   39  C19 UNL     1       4.317  11.522  22.571  1.00  0.00    -0.056 A 
HETATM   40  C20 UNL     1       3.211  12.137  23.181  1.00  0.00     0.007 A 
HETATM   41  C21 UNL     1       3.214  13.511  23.432  1.00  0.00     0.001 A 
HETATM   42  C22 UNL     1       4.321  14.283  23.080  1.00  0.00     0.000 A 
HETATM   43  C23 UNL     1       5.423  13.682  22.472  1.00  0.00     0.001 A 
HETATM   44  C24 UNL     1       5.422  12.308  22.217  1.00  0.00     0.007 A 
ENDBRANCH  38  39
ENDBRANCH  37  38
BRANCH  37  45
HETATM   45  C25 UNL     1       2.230   8.666  22.749  1.00  0.00     0.163 C 
HETATM   46  O5  UNL     1       1.365   7.839  22.505  1.00  0.00    -0.648 OA
BRANCH  45  47
HETATM   47  O6  UNL     1       2.581   8.902  24.031  1.00  0.00    -0.775 OA
HETATM   48  H27 UNL     1       1.985   8.320  24.545  1.00  0.00     0.167 HD
ENDBRANCH  45  47
ENDBRANCH  37  45
ENDBRANCH  35  37
ENDBRANCH  32  33
BRANCH  32  49
HETATM   49  C26 UNL     1       1.325  13.128  20.066  1.00  0.00     0.009 C 
HETATM   50  C27 UNL     1       2.663  13.790  19.723  1.00  0.00     0.012 C 
HETATM   51  C28 UNL     1       0.180  14.123  19.857  1.00  0.00     0.012 C 
ENDBRANCH  32  49
ENDBRANCH  30  32
ENDBRANCH  27  28
ENDBRANCH  26  27
ENDBRANCH  13  26
TORSDOF 12
ENDMDL
