MODEL 1
REMARK minimizedAffinity -9.61743832
REMARK CNNscore 0.511928618
REMARK CNNaffinity 6.83566523
REMARK  15 active torsions:
REMARK  status: ('A' for Active; 'I' for Inactive)
REMARK    1  A    between atoms: C2_2  and  C26_34 
REMARK    2  A    between atoms: C3_3  and  C4_4 
REMARK    3  A    between atoms: C5_5  and  C6_6 
REMARK    4  A    between atoms: C6_6  and  C7_7 
REMARK    5  A    between atoms: C7_7  and  O1_8 
REMARK    6  A    between atoms: C7_7  and  C8_9 
REMARK    7  A    between atoms: C8_9  and  C9_10 
REMARK    8  A    between atoms: C14_16  and  O3_17 
REMARK    9  A    between atoms: C22_28  and  O7_29 
REMARK   10  A    between atoms: C23_30  and  O8_31 
REMARK   11  A    between atoms: C26_34  and  C27_35 
REMARK   12  A    between atoms: C28_36  and  C29_37 
REMARK   13  A    between atoms: C30_38  and  C31_39 
REMARK   14  A    between atoms: C31_39  and  C32_40 
REMARK   15  A    between atoms: C32_40  and  O9_41 
ROOT
HETATM    1  C9  UNL     1      -0.964  50.387 -19.793  1.00  0.00     0.134 C 
HETATM    2  C10 UNL     1       0.211  50.869 -20.660  1.00  0.00     0.033 C 
HETATM    3  C11 UNL     1      -0.117  50.974 -22.156  1.00  0.00     0.005 C 
HETATM    4  C12 UNL     1      -1.134  52.075 -22.489  1.00  0.00     0.032 C 
HETATM    5  C13 UNL     1      -1.658  52.048 -23.940  1.00  0.00     0.131 C 
HETATM    6  O2  UNL     1      -2.460  50.872 -24.091  1.00  0.00    -0.347 OA
HETATM    7  C14 UNL     1      -3.266  50.847 -25.265  1.00  0.00     0.191 C 
HETATM    8  C15 UNL     1      -3.446  49.351 -25.637  1.00  0.00     0.074 C 
HETATM    9  C16 UNL     1      -4.408  48.496 -24.785  1.00  0.00     0.037 C 
HETATM   10  C17 UNL     1      -4.191  48.537 -23.275  1.00  0.00     0.122 C 
HETATM   11  C18 UNL     1      -5.136  47.610 -22.521  1.00  0.00     0.035 C 
HETATM   12  C19 UNL     1      -4.341  47.175 -21.302  1.00  0.00     0.045 C 
HETATM   13  C20 UNL     1      -2.951  47.760 -21.519  1.00  0.00     0.221 C 
HETATM   14  O4  UNL     1      -2.881  48.082 -22.918  1.00  0.00    -0.371 OA
HETATM   15  C21 UNL     1      -2.723  48.997 -20.638  1.00  0.00     0.288 C 
HETATM   16  O5  UNL     1      -3.607  49.756 -20.264  1.00  0.00    -0.262 OA
HETATM   17  O6  UNL     1      -1.398  49.126 -20.350  1.00  0.00    -0.314 OA
HETATM   18  C22 UNL     1      -2.642  51.664 -26.447  1.00  0.00     0.209 C 
HETATM   19  C23 UNL     1      -1.113  51.650 -26.410  1.00  0.00     0.158 C 
HETATM   20  C24 UNL     1      -0.551  52.046 -25.021  1.00  0.00     0.042 C 
HETATM   21  C25 UNL     1       0.154  53.406 -25.073  1.00  0.00     0.015 C 
ENDROOT
BRANCH   1  22
HETATM   22  C8  UNL     1      -0.504  50.171 -18.340  1.00  0.00     0.064 C 
BRANCH  22  23
HETATM   23  C7  UNL     1      -0.235  51.502 -17.630  1.00  0.00     0.124 C 
BRANCH  23  24
HETATM   24  C6  UNL     1       0.874  51.418 -16.562  1.00  0.00     0.059 C 
BRANCH  24  25
HETATM   25  C5  UNL     1       1.815  52.596 -16.545  1.00  0.00    -0.024 C 
HETATM   26  C4  UNL     1       3.062  52.660 -16.052  1.00  0.00    -0.004 C 
BRANCH  26  27
HETATM   27  C3  UNL     1       3.812  51.577 -15.456  1.00  0.00     0.002 C 
HETATM   28  C2  UNL     1       3.597  51.020 -14.246  1.00  0.00    -0.080 C 
HETATM   29  C1  UNL     1       4.474  49.888 -13.767  1.00  0.00     0.043 C 
BRANCH  28  30
HETATM   30  C26 UNL     1       2.524  51.435 -13.256  1.00  0.00     0.060 C 
BRANCH  30  31
HETATM   31  C27 UNL     1       3.001  51.266 -11.839  1.00  0.00    -0.022 C 
HETATM   32  C28 UNL     1       3.278  52.213 -10.929  1.00  0.00    -0.004 C 
BRANCH  32  33
HETATM   33  C29 UNL     1       3.125  53.637 -11.117  1.00  0.00    -0.004 C 
HETATM   34  C30 UNL     1       3.754  54.605 -10.432  1.00  0.00    -0.025 C 
BRANCH  34  35
HETATM   35  C31 UNL     1       4.798  54.469  -9.354  1.00  0.00     0.053 C 
BRANCH  35  36
HETATM   36  C32 UNL     1       6.146  55.062  -9.780  1.00  0.00     0.168 C 
BRANCH  36  37
HETATM   37  O9  UNL     1       7.247  54.325  -9.258  1.00  0.00    -0.401 OA
HETATM   38  H50 UNL     1       7.027  54.068  -8.346  1.00  0.00     0.209 HD
ENDBRANCH  36  37
ENDBRANCH  35  36
ENDBRANCH  34  35
ENDBRANCH  32  33
ENDBRANCH  30  31
ENDBRANCH  28  30
ENDBRANCH  26  27
ENDBRANCH  24  25
ENDBRANCH  23  24
BRANCH  23  39
HETATM   39  O1  UNL     1       0.103  52.477 -18.618  1.00  0.00    -0.395 OA
HETATM   40  H10 UNL     1       0.322  53.304 -18.155  1.00  0.00     0.210 HD
ENDBRANCH  23  39
ENDBRANCH  22  23
ENDBRANCH   1  22
BRANCH   7  41
HETATM   41  O3  UNL     1      -4.525  51.473 -24.979  1.00  0.00    -0.363 OA
HETATM   42  H21 UNL     1      -5.226  50.812 -25.097  1.00  0.00     0.213 HD
ENDBRANCH   7  41
BRANCH  19  43
HETATM   43  O8  UNL     1      -0.612  50.364 -26.810  1.00  0.00    -0.392 OA
HETATM   44  H35 UNL     1      -0.541  49.796 -26.018  1.00  0.00     0.210 HD
ENDBRANCH  19  43
BRANCH  18  45
HETATM   45  O7  UNL     1      -3.076  53.043 -26.378  1.00  0.00    -0.387 OA
HETATM   46  H33 UNL     1      -3.914  53.014 -25.866  1.00  0.00     0.210 HD
ENDBRANCH  18  45
TORSDOF 15
ENDMDL
