MODEL 1
REMARK minimizedAffinity -9.35368538
REMARK CNNscore 0.626666725
REMARK CNNaffinity 7.21794462
REMARK  10 active torsions:
REMARK  status: ('A' for Active; 'I' for Inactive)
REMARK    1  A    between atoms: C19_21  and  O3_22 
REMARK    2  A    between atoms: C19_21  and  C20_23 
REMARK    3  A    between atoms: C20_23  and  C21_25 
REMARK    4  A    between atoms: C21_25  and  O5_26 
REMARK    5  A    between atoms: O5_26  and  C22_27 
REMARK    6  A    between atoms: C22_27  and  C23_29 
REMARK    7  A    between atoms: C23_29  and  C24_30 
REMARK    8  A    between atoms: C24_30  and  C25_31 
REMARK       I    between atoms: C25_31  and  N1_33 
REMARK    9  A    between atoms: N1_33  and  C26_34 
REMARK   10  A    between atoms: C26_34  and  C27_35 
ROOT
HETATM    1  C1  UNL     1       3.074   7.132  11.486  1.00  0.00     0.021 C 
HETATM    2  C2  UNL     1       1.974   6.371  10.712  1.00  0.00    -0.009 C 
HETATM    3  C3  UNL     1       2.342   4.859  10.622  1.00  0.00     0.022 C 
HETATM    4  C4  UNL     1       3.483   4.559   9.660  1.00  0.00     0.084 C 
HETATM    5  C5  UNL     1       3.169   5.099   8.291  1.00  0.00     0.149 C 
HETATM    6  O1  UNL     1       3.578   4.568   7.262  1.00  0.00    -0.293 OA
HETATM    7  C6  UNL     1       2.411   6.369   8.202  1.00  0.00     0.053 C 
HETATM    8  C7  UNL     1       1.909   6.972   9.295  1.00  0.00    -0.067 C 
HETATM    9  C8  UNL     1       1.266   8.333   9.163  1.00  0.00     0.035 C 
HETATM   10  C9  UNL     1      -0.107   8.377   9.815  1.00  0.00     0.010 C 
HETATM   11  C10 UNL     1      -0.045   7.932  11.282  1.00  0.00     0.003 C 
HETATM   12  C11 UNL     1       0.560   6.500  11.382  1.00  0.00     0.072 C 
HETATM   13  C12 UNL     1       0.462   6.004  12.840  1.00  0.00     0.133 C 
HETATM   14  O2  UNL     1       1.416   5.546  13.465  1.00  0.00    -0.297 OA
HETATM   15  C13 UNL     1      -0.914   6.074  13.492  1.00  0.00     0.091 C 
HETATM   16  C14 UNL     1      -1.438   7.514  13.412  1.00  0.00     0.005 C 
HETATM   17  C15 UNL     1      -0.548   8.424  14.299  1.00  0.00     0.019 C 
HETATM   18  C16 UNL     1      -1.442   7.924  11.916  1.00  0.00     0.002 C 
HETATM   19  C17 UNL     1      -2.262   9.212  11.893  1.00  0.00     0.009 C 
HETATM   20  C18 UNL     1      -3.284   9.052  13.037  1.00  0.00     0.047 C 
HETATM   21  C19 UNL     1      -2.944   7.721  13.741  1.00  0.00     0.128 C 
ENDROOT
BRANCH  21  22
HETATM   22  O3  UNL     1      -3.710   6.694  13.076  1.00  0.00    -0.381 OA
HETATM   23  H25 UNL     1      -3.808   5.958  13.717  1.00  0.00     0.211 HD
ENDBRANCH  21  22
BRANCH  21  24
HETATM   24  C20 UNL     1      -3.305   7.601  15.235  1.00  0.00     0.185 C 
HETATM   25  O4  UNL     1      -3.085   8.568  15.976  1.00  0.00    -0.292 OA
BRANCH  24  26
HETATM   26  C21 UNL     1      -3.934   6.312  15.761  1.00  0.00     0.260 C 
BRANCH  26  27
HETATM   27  O5  UNL     1      -5.068   5.902  14.991  1.00  0.00    -0.314 OA
BRANCH  27  28
HETATM   28  C22 UNL     1      -6.262   6.217  15.571  1.00  0.00     0.259 C 
HETATM   29  O6  UNL     1      -6.672   5.728  16.618  1.00  0.00    -0.265 OA
BRANCH  28  30
HETATM   30  C23 UNL     1      -7.007   7.218  14.728  1.00  0.00     0.120 C 
BRANCH  30  31
HETATM   31  C24 UNL     1      -8.449   6.771  14.524  1.00  0.00     0.112 C 
BRANCH  31  32
HETATM   32  C25 UNL     1      -8.574   5.752  13.416  1.00  0.00     0.218 C 
HETATM   33  O7  UNL     1      -9.166   5.963  12.362  1.00  0.00    -0.274 OA
HETATM   34  N1  UNL     1      -7.940   4.565  13.713  1.00  0.00    -0.357 N 
HETATM   35  H32 UNL     1      -7.623   4.410  14.661  1.00  0.00     0.162 HD
BRANCH  34  36
HETATM   36  C26 UNL     1      -8.011   3.420  12.832  1.00  0.00     0.162 C 
BRANCH  36  37
HETATM   37  C27 UNL     1      -6.642   2.984  12.401  1.00  0.00    -0.025 A 
HETATM   38  C28 UNL     1      -5.509   3.752  12.687  1.00  0.00     0.011 A 
HETATM   39  C29 UNL     1      -4.257   3.327  12.253  1.00  0.00     0.018 A 
HETATM   40  C30 UNL     1      -4.178   2.145  11.536  1.00  0.00     0.087 A 
HETATM   41  N2  UNL     1      -5.248   1.380  11.230  1.00  0.00    -0.375 N 
HETATM   42  C31 UNL     1      -6.452   1.816  11.668  1.00  0.00     0.096 A 
ATOM     43  H2  UNL     1      -5.154   0.517  10.696  1.00  0.00     0.164 HD
ENDBRANCH  36  37
ENDBRANCH  34  36
ENDBRANCH  31  32
ENDBRANCH  30  31
ENDBRANCH  28  30
ENDBRANCH  27  28
ENDBRANCH  26  27
ENDBRANCH  24  26
ENDBRANCH  21  24
TORSDOF 10
ENDMDL
