MODEL 1
REMARK minimizedAffinity -9.75020027
REMARK  5 active torsions:
REMARK  status: ('A' for Active; 'I' for Inactive)
REMARK    1  A    between atoms: C4_4  and  C5_5 
REMARK    2  A    between atoms: C5_5  and  C6_6 
REMARK    3  A    between atoms: C6_6  and  C7_7 
REMARK    4  A    between atoms: C7_7  and  C9_9 
REMARK    5  A    between atoms: C24_24  and  O1_25 
ROOT
HETATM    1  C9  UNL     1      -1.015  50.016 -19.386  1.00  0.00    -0.002 C 
HETATM    2  C10 UNL     1      -2.096  49.139 -18.716  1.00  0.00     0.007 C 
HETATM    3  C11 UNL     1      -2.954  48.533 -19.853  1.00  0.00     0.015 C 
HETATM    4  C12 UNL     1      -2.212  48.886 -21.158  1.00  0.00    -0.013 C 
HETATM    5  C13 UNL     1      -1.150  47.763 -21.392  1.00  0.00     0.021 C 
HETATM    6  C14 UNL     1      -2.982  48.965 -22.473  1.00  0.00    -0.068 C 
HETATM    7  C15 UNL     1      -2.532  49.776 -23.469  1.00  0.00    -0.068 C 
HETATM    8  C16 UNL     1      -1.326  50.703 -23.274  1.00  0.00     0.036 C 
HETATM    9  C17 UNL     1      -0.653  50.716 -21.884  1.00  0.00     0.015 C 
HETATM   10  C18 UNL     1      -1.636  50.301 -20.786  1.00  0.00    -0.029 C 
HETATM   11  C19 UNL     1      -2.726  51.410 -20.667  1.00  0.00     0.016 C 
HETATM   12  C20 UNL     1      -3.255  49.848 -24.833  1.00  0.00    -0.017 C 
HETATM   13  C21 UNL     1      -4.215  51.062 -24.762  1.00  0.00     0.020 C 
HETATM   14  C22 UNL     1      -2.275  50.043 -26.026  1.00  0.00     0.016 C 
HETATM   15  C23 UNL     1      -2.964  49.989 -27.392  1.00  0.00     0.033 C 
HETATM   16  C24 UNL     1      -3.777  48.713 -27.583  1.00  0.00     0.118 C 
HETATM   17  C25 UNL     1      -4.742  48.459 -26.425  1.00  0.00     0.037 C 
HETATM   18  C26 UNL     1      -4.010  48.501 -25.078  1.00  0.00     0.001 C 
HETATM   19  C27 UNL     1      -4.954  48.175 -23.923  1.00  0.00     0.010 C 
HETATM   20  C28 UNL     1      -4.182  48.052 -22.610  1.00  0.00     0.036 C 
ENDROOT
BRANCH   1  21
HETATM   21  C7  UNL     1      -0.439  51.218 -18.583  1.00  0.00    -0.014 C 
HETATM   22  C8  UNL     1       0.379  52.122 -19.519  1.00  0.00     0.010 C 
BRANCH  21  23
HETATM   23  C6  UNL     1       0.290  50.937 -17.243  1.00  0.00     0.008 C 
BRANCH  23  24
HETATM   24  C5  UNL     1       0.831  52.119 -16.408  1.00  0.00     0.028 C 
BRANCH  24  25
HETATM   25  C4  UNL     1       2.297  52.398 -16.582  1.00  0.00    -0.025 C 
HETATM   26  C2  UNL     1       3.328  52.037 -15.794  1.00  0.00    -0.091 C 
HETATM   27  C1  UNL     1       3.219  51.255 -14.513  1.00  0.00     0.042 C 
HETATM   28  C3  UNL     1       4.738  52.419 -16.162  1.00  0.00     0.042 C 
ENDBRANCH  24  25
ENDBRANCH  23  24
ENDBRANCH  21  23
ENDBRANCH   1  21
BRANCH  16  29
HETATM   29  O1  UNL     1      -4.506  48.790 -28.804  1.00  0.00    -0.396 OA
HETATM   30  H39 UNL     1      -5.146  49.519 -28.724  1.00  0.00     0.210 HD
ENDBRANCH  16  29
TORSDOF 5
ENDMDL
