MODEL 1
REMARK minimizedAffinity -7.28841066
REMARK CNNscore 0.646074414
REMARK CNNaffinity 7.05341482
REMARK  6 active torsions:
REMARK  status: ('A' for Active; 'I' for Inactive)
REMARK    1  A    between atoms: C2_2  and  C30_31 
REMARK    2  A    between atoms: C3_3  and  C4_4 
REMARK    3  A    between atoms: C4_4  and  C5_5 
REMARK    4  A    between atoms: C5_5  and  C6_6 
REMARK    5  A    between atoms: C6_6  and  C8_8 
REMARK    6  A    between atoms: C30_31  and  O3_33 
ROOT
HETATM    1  C8  UNL     1      -1.881  52.597 -10.718  1.00  0.00    -0.002 C 
HETATM    2  C9  UNL     1      -1.157  51.230 -10.920  1.00  0.00     0.007 C 
HETATM    3  C10 UNL     1       0.317  51.420 -10.515  1.00  0.00     0.015 C 
HETATM    4  C11 UNL     1       0.498  52.947 -10.408  1.00  0.00    -0.013 C 
HETATM    5  C12 UNL     1       0.749  53.454 -11.865  1.00  0.00     0.021 C 
HETATM    6  C13 UNL     1       1.657  53.478  -9.569  1.00  0.00    -0.070 C 
HETATM    7  C14 UNL     1       2.826  52.822  -9.464  1.00  0.00    -0.022 C 
HETATM    8  C15 UNL     1       4.034  53.345  -8.753  1.00  0.00     0.034 C 
HETATM    9  C16 UNL     1       3.794  54.619  -7.910  1.00  0.00     0.013 C 
HETATM   10  C17 UNL     1       5.130  55.258  -7.378  1.00  0.00     0.018 C 
HETATM   11  C18 UNL     1       6.314  55.200  -8.364  1.00  0.00     0.023 C 
HETATM   12  C19 UNL     1       5.574  54.527  -6.092  1.00  0.00     0.023 C 
HETATM   13  C20 UNL     1       4.881  56.718  -6.987  1.00  0.00     0.135 C 
HETATM   14  O1  UNL     1       5.775  57.564  -6.955  1.00  0.00    -0.297 OA
HETATM   15  C21 UNL     1       3.485  57.065  -6.551  1.00  0.00     0.080 C 
HETATM   16  C22 UNL     1       2.485  56.826  -7.672  1.00  0.00     0.017 C 
HETATM   17  C23 UNL     1       2.796  55.616  -8.612  1.00  0.00    -0.031 C 
HETATM   18  C24 UNL     1       3.384  56.170  -9.931  1.00  0.00     0.016 C 
HETATM   19  C25 UNL     1       1.448  54.829  -8.882  1.00  0.00     0.024 C 
HETATM   20  C26 UNL     1       0.333  55.663  -9.560  1.00  0.00     0.010 C 
HETATM   21  C27 UNL     1      -0.997  54.910  -9.803  1.00  0.00     0.011 C 
HETATM   22  C28 UNL     1      -0.885  53.369  -9.788  1.00  0.00    -0.029 C 
HETATM   23  C29 UNL     1      -1.093  52.859  -8.326  1.00  0.00     0.016 C 
ENDROOT
BRANCH   1  24
HETATM   24  C6  UNL     1      -3.370  52.418 -10.290  1.00  0.00    -0.014 C 
HETATM   25  C7  UNL     1      -4.204  53.674 -10.566  1.00  0.00     0.010 C 
BRANCH  24  26
HETATM   26  C5  UNL     1      -3.991  51.195 -11.018  1.00  0.00     0.008 C 
BRANCH  26  27
HETATM   27  C4  UNL     1      -4.749  50.237 -10.092  1.00  0.00     0.028 C 
BRANCH  27  28
HETATM   28  C3  UNL     1      -5.547  49.233 -10.882  1.00  0.00    -0.013 C 
HETATM   29  C2  UNL     1      -6.807  48.809 -10.657  1.00  0.00     0.008 C 
HETATM   30  C1  UNL     1      -7.476  47.818 -11.566  1.00  0.00     0.055 C 
BRANCH  29  31
HETATM   31  C30 UNL     1      -7.581  49.255  -9.473  1.00  0.00     0.171 C 
HETATM   32  O2  UNL     1      -7.717  48.672  -8.414  1.00  0.00    -0.646 OA
BRANCH  31  33
HETATM   33  O3  UNL     1      -8.179  50.440  -9.689  1.00  0.00    -0.773 OA
HETATM   34  H46 UNL     1      -8.645  50.614  -8.846  1.00  0.00     0.167 HD
ENDBRANCH  31  33
ENDBRANCH  29  31
ENDBRANCH  27  28
ENDBRANCH  26  27
ENDBRANCH  24  26
ENDBRANCH   1  24
TORSDOF 6
ENDMDL
