MODEL 1
REMARK minimizedAffinity -9.10648823
REMARK  4 active torsions:
REMARK  status: ('A' for Active; 'I' for Inactive)
REMARK    1  A    between atoms: C13_14  and  O2_15 
REMARK    2  A    between atoms: C22_24  and  O3_25 
REMARK    3  A    between atoms: C22_24  and  C23_26 
REMARK    4  A    between atoms: C23_26  and  O4_27 
ROOT
HETATM    1  C1  UNL     1      -4.840   8.424  13.153  1.00  0.00     0.078 C 
HETATM    2  C2  UNL     1      -4.108   7.837  14.363  1.00  0.00     0.157 C 
HETATM    3  C3  UNL     1      -4.995   8.056  15.595  1.00  0.00     0.078 C 
HETATM    4  O1  UNL     1      -3.938   6.430  14.266  1.00  0.00    -0.355 OA
HETATM    5  C4  UNL     1      -2.947   6.047  13.323  1.00  0.00     0.183 C 
HETATM    6  C5  UNL     1      -1.559   6.635  13.677  1.00  0.00     0.011 C 
HETATM    7  C6  UNL     1      -1.115   5.987  15.012  1.00  0.00     0.020 C 
HETATM    8  C7  UNL     1      -1.734   8.155  13.920  1.00  0.00     0.136 C 
HETATM    9  C8  UNL     1      -1.582   8.972  12.641  1.00  0.00     0.034 C 
HETATM   10  C9  UNL     1      -0.139   8.919  12.138  1.00  0.00     0.013 C 
HETATM   11  C10 UNL     1       0.524   7.503  12.221  1.00  0.00    -0.029 C 
HETATM   12  C11 UNL     1       1.542   7.565  13.398  1.00  0.00     0.016 C 
HETATM   13  C12 UNL     1      -0.553   6.360  12.477  1.00  0.00     0.036 C 
HETATM   14  C13 UNL     1       0.088   4.936  12.468  1.00  0.00     0.124 C 
HETATM   15  C14 UNL     1       0.949   4.646  11.226  1.00  0.00     0.037 C 
HETATM   16  C15 UNL     1       1.924   5.777  10.955  1.00  0.00    -0.002 C 
HETATM   17  C16 UNL     1       2.773   5.691   9.684  1.00  0.00     0.013 C 
HETATM   18  C17 UNL     1       3.032   7.171   9.285  1.00  0.00     0.023 C 
HETATM   19  C18 UNL     1       2.517   7.978  10.503  1.00  0.00     0.018 C 
HETATM   20  C19 UNL     1       1.252   7.168  10.857  1.00  0.00    -0.028 C 
HETATM   21  C20 UNL     1       0.260   7.208   9.616  1.00  0.00     0.014 C 
HETATM   22  C21 UNL     1       0.785   7.972   8.391  1.00  0.00     0.041 C 
HETATM   23  C22 UNL     1       2.250   7.640   8.037  1.00  0.00     0.083 C 
HETATM   24  O5  UNL     1      -2.898   8.519  14.654  1.00  0.00    -0.350 OA
ENDROOT
BRANCH  23  25
HETATM   25  O3  UNL     1       2.855   8.882   7.611  1.00  0.00    -0.387 OA
HETATM   26  H35 UNL     1       2.525   9.019   6.699  1.00  0.00     0.210 HD
ENDBRANCH  23  25
BRANCH  23  27
HETATM   27  C23 UNL     1       2.363   6.683   6.831  1.00  0.00     0.202 C 
BRANCH  27  28
HETATM   28  O4  UNL     1       2.757   5.388   7.301  1.00  0.00    -0.398 OA
HETATM   29  H38 UNL     1       2.810   4.811   6.519  1.00  0.00     0.209 HD
ENDBRANCH  27  28
ENDBRANCH  23  27
BRANCH  14  30
HETATM   30  O2  UNL     1      -0.937   3.946  12.504  1.00  0.00    -0.395 OA
HETATM   31  H22 UNL     1      -0.506   3.081  12.623  1.00  0.00     0.210 HD
ENDBRANCH  14  30
TORSDOF 4
ENDMDL
