MODEL 1
REMARK minimizedAffinity -9.18555737
REMARK CNNscore 0.699947655
REMARK CNNaffinity 7.53451681
REMARK  11 active torsions:
REMARK  status: ('A' for Active; 'I' for Inactive)
REMARK    1  A    between atoms: C12_13  and  O2_14 
REMARK    2  A    between atoms: C19_21  and  O3_22 
REMARK    3  A    between atoms: C19_21  and  C20_23 
REMARK    4  A    between atoms: C20_23  and  C21_25 
REMARK    5  A    between atoms: C21_25  and  O5_26 
REMARK    6  A    between atoms: O5_26  and  C22_27 
REMARK    7  A    between atoms: C22_27  and  C23_29 
REMARK    8  A    between atoms: C23_29  and  C24_30 
REMARK    9  A    between atoms: C24_30  and  C25_31 
REMARK       I    between atoms: C25_31  and  N1_33 
REMARK   10  A    between atoms: N1_33  and  C26_34 
REMARK   11  A    between atoms: C26_34  and  C27_35 
ROOT
HETATM    1  C1  UNL     1      -0.064  49.500 -20.647  1.00  0.00     0.025 C 
HETATM    2  C2  UNL     1      -0.763  50.870 -20.811  1.00  0.00     0.004 A 
HETATM    3  C3  UNL     1      -0.126  51.528 -22.036  1.00  0.00    -0.009 A 
HETATM    4  C4  UNL     1       0.562  52.677 -22.030  1.00  0.00     0.052 A 
HETATM    5  C5  UNL     1       0.768  53.428 -20.780  1.00  0.00     0.172 A 
HETATM    6  O1  UNL     1       1.383  54.486 -20.766  1.00  0.00    -0.289 OA
HETATM    7  C6  UNL     1       0.198  52.852 -19.545  1.00  0.00     0.058 A 
HETATM    8  C7  UNL     1      -0.484  51.693 -19.547  1.00  0.00    -0.064 A 
HETATM    9  C8  UNL     1      -1.070  51.171 -18.258  1.00  0.00     0.036 C 
HETATM   10  C9  UNL     1      -2.371  50.396 -18.469  1.00  0.00     0.010 C 
HETATM   11  C10 UNL     1      -3.157  50.906 -19.685  1.00  0.00    -0.002 C 
HETATM   12  C11 UNL     1      -2.334  50.802 -21.019  1.00  0.00     0.035 C 
HETATM   13  C12 UNL     1      -2.897  49.710 -21.972  1.00  0.00     0.124 C 
HETATM   14  C13 UNL     1      -3.468  48.503 -21.228  1.00  0.00     0.045 C 
HETATM   15  C14 UNL     1      -4.657  48.823 -20.282  1.00  0.00     0.001 C 
HETATM   16  C15 UNL     1      -4.604  47.805 -19.117  1.00  0.00     0.019 C 
HETATM   17  C16 UNL     1      -4.571  50.286 -19.751  1.00  0.00     0.002 C 
HETATM   18  C17 UNL     1      -5.518  51.132 -20.635  1.00  0.00     0.009 C 
HETATM   19  C18 UNL     1      -6.234  50.181 -21.586  1.00  0.00     0.047 C 
HETATM   20  C19 UNL     1      -6.076  48.804 -20.957  1.00  0.00     0.128 C 
ENDROOT
BRANCH  20  21
HETATM   21  O3  UNL     1      -7.093  48.732 -19.936  1.00  0.00    -0.381 OA
HETATM   22  H25 UNL     1      -7.187  47.785 -19.708  1.00  0.00     0.211 HD
ENDBRANCH  20  21
BRANCH  20  23
HETATM   23  C20 UNL     1      -6.347  47.608 -21.893  1.00  0.00     0.185 C 
HETATM   24  O4  UNL     1      -7.267  46.826 -21.623  1.00  0.00    -0.292 OA
BRANCH  23  25
HETATM   25  C21 UNL     1      -5.457  47.422 -23.124  1.00  0.00     0.260 C 
BRANCH  25  26
HETATM   26  O5  UNL     1      -6.006  47.997 -24.309  1.00  0.00    -0.314 OA
BRANCH  26  27
HETATM   27  C22 UNL     1      -5.146  48.813 -24.978  1.00  0.00     0.259 C 
HETATM   28  O6  UNL     1      -4.626  49.816 -24.508  1.00  0.00    -0.265 OA
BRANCH  27  29
HETATM   29  C23 UNL     1      -4.896  48.311 -26.376  1.00  0.00     0.120 C 
BRANCH  29  30
HETATM   30  C24 UNL     1      -3.411  48.395 -26.693  1.00  0.00     0.112 C 
BRANCH  30  31
HETATM   31  C25 UNL     1      -3.042  49.744 -27.276  1.00  0.00     0.218 C 
HETATM   32  O7  UNL     1      -3.233  50.038 -28.450  1.00  0.00    -0.274 OA
HETATM   33  N1  UNL     1      -2.419  50.573 -26.374  1.00  0.00    -0.357 N 
HETATM   34  H32 UNL     1      -2.227  50.242 -25.439  1.00  0.00     0.162 HD
BRANCH  33  35
HETATM   35  C26 UNL     1      -1.911  51.872 -26.749  1.00  0.00     0.162 C 
BRANCH  35  36
HETATM   36  C27 UNL     1      -0.415  51.836 -26.870  1.00  0.00    -0.025 A 
HETATM   37  C28 UNL     1       0.414  51.778 -25.747  1.00  0.00     0.011 A 
HETATM   38  C29 UNL     1       1.796  51.715 -25.912  1.00  0.00     0.018 A 
HETATM   39  C30 UNL     1       2.302  51.708 -27.202  1.00  0.00     0.087 A 
HETATM   40  N2  UNL     1       1.534  51.756 -28.309  1.00  0.00    -0.375 N 
HETATM   41  C31 UNL     1       0.195  51.816 -28.121  1.00  0.00     0.096 A 
ATOM     42  H2  UNL     1       1.942  51.748 -29.244  1.00  0.00     0.164 HD
ENDBRANCH  35  36
ENDBRANCH  33  35
ENDBRANCH  30  31
ENDBRANCH  29  30
ENDBRANCH  27  29
ENDBRANCH  26  27
ENDBRANCH  25  26
ENDBRANCH  23  25
ENDBRANCH  20  23
BRANCH  13  43
HETATM   43  O2  UNL     1      -1.946  49.280 -22.936  1.00  0.00    -0.395 OA
HETATM   44  H14 UNL     1      -2.298  48.509 -23.414  1.00  0.00     0.210 HD
ENDBRANCH  13  43
TORSDOF 11
ENDMDL
