MODEL 1
REMARK minimizedAffinity -9.3307209
REMARK  7 active torsions:
REMARK  status: ('A' for Active; 'I' for Inactive)
REMARK    1  A    between atoms: C2_2  and  C30_32 
REMARK    2  A    between atoms: C3_3  and  C4_4 
REMARK    3  A    between atoms: C4_4  and  O1_5 
REMARK    4  A    between atoms: C4_4  and  C5_6 
REMARK    5  A    between atoms: C5_6  and  C6_7 
REMARK    6  A    between atoms: C6_7  and  C8_9 
REMARK    7  A    between atoms: C30_32  and  O4_34 
ROOT
HETATM    1  C8  UNL     1      -3.171   8.312  14.565  1.00  0.00    -0.002 C 
HETATM    2  C9  UNL     1      -2.557   7.734  15.881  1.00  0.00     0.007 C 
HETATM    3  C10 UNL     1      -1.105   7.313  15.572  1.00  0.00     0.015 C 
HETATM    4  C11 UNL     1      -0.805   7.961  14.210  1.00  0.00    -0.013 C 
HETATM    5  C12 UNL     1      -0.440   9.458  14.515  1.00  0.00     0.021 C 
HETATM    6  C13 UNL     1       0.363   7.422  13.381  1.00  0.00    -0.070 C 
HETATM    7  C14 UNL     1       1.548   7.152  13.961  1.00  0.00    -0.022 C 
HETATM    8  C15 UNL     1       2.831   7.022  13.201  1.00  0.00     0.034 C 
HETATM    9  C16 UNL     1       2.740   7.754  11.843  1.00  0.00     0.013 C 
HETATM   10  C17 UNL     1       4.123   7.888  11.109  1.00  0.00     0.018 C 
HETATM   11  C18 UNL     1       5.010   8.893  11.891  1.00  0.00     0.023 C 
HETATM   12  C19 UNL     1       4.936   6.591  10.973  1.00  0.00     0.023 C 
HETATM   13  C20 UNL     1       3.897   8.456   9.700  1.00  0.00     0.135 C 
HETATM   14  O2  UNL     1       4.614   9.331   9.214  1.00  0.00    -0.297 OA
HETATM   15  C21 UNL     1       2.787   7.851   8.878  1.00  0.00     0.080 C 
HETATM   16  C22 UNL     1       1.479   7.926   9.650  1.00  0.00     0.017 C 
HETATM   17  C23 UNL     1       1.525   7.202  11.018  1.00  0.00    -0.031 C 
HETATM   18  C24 UNL     1       1.637   5.673  10.752  1.00  0.00     0.016 C 
HETATM   19  C25 UNL     1       0.176   7.400  11.853  1.00  0.00     0.024 C 
HETATM   20  C26 UNL     1      -0.761   8.547  11.416  1.00  0.00     0.010 C 
HETATM   21  C27 UNL     1      -2.134   8.565  12.143  1.00  0.00     0.011 C 
HETATM   22  C28 UNL     1      -2.181   7.777  13.475  1.00  0.00    -0.029 C 
HETATM   23  C29 UNL     1      -2.553   6.284  13.198  1.00  0.00     0.016 C 
ENDROOT
BRANCH   1  24
HETATM   24  C6  UNL     1      -4.702   8.024  14.454  1.00  0.00    -0.011 C 
HETATM   25  C7  UNL     1      -5.543   9.086  15.168  1.00  0.00     0.010 C 
BRANCH  24  26
HETATM   26  C5  UNL     1      -5.011   6.613  15.038  1.00  0.00     0.040 C 
BRANCH  26  27
HETATM   27  C4  UNL     1      -6.160   5.852  14.350  1.00  0.00     0.142 C 
BRANCH  27  28
HETATM   28  C3  UNL     1      -5.638   4.852  13.349  1.00  0.00     0.018 C 
HETATM   29  C2  UNL     1      -6.260   3.744  12.896  1.00  0.00     0.010 C 
HETATM   30  C1  UNL     1      -5.683   2.854  11.839  1.00  0.00     0.055 C 
BRANCH  29  31
HETATM   31  C30 UNL     1      -7.585   3.320  13.394  1.00  0.00     0.171 C 
HETATM   32  O3  UNL     1      -8.301   2.488  12.872  1.00  0.00    -0.646 OA
BRANCH  31  33
HETATM   33  O4  UNL     1      -7.892   3.902  14.566  1.00  0.00    -0.773 OA
HETATM   34  H46 UNL     1      -8.794   3.575  14.758  1.00  0.00     0.167 HD
ENDBRANCH  31  33
ENDBRANCH  29  31
ENDBRANCH  27  28
BRANCH  27  35
HETATM   35  O1  UNL     1      -6.999   6.793  13.689  1.00  0.00    -0.392 OA
HETATM   36  H6  UNL     1      -6.490   7.173  12.953  1.00  0.00     0.210 HD
ENDBRANCH  27  35
ENDBRANCH  26  27
ENDBRANCH  24  26
ENDBRANCH   1  24
TORSDOF 7
ENDMDL
