MODEL 1
REMARK minimizedAffinity -9.20279312
REMARK  6 active torsions:
REMARK  status: ('A' for Active; 'I' for Inactive)
REMARK    1  A    between atoms: C2_2  and  C30_32 
REMARK    2  A    between atoms: C3_3  and  C4_4 
REMARK    3  A    between atoms: C4_4  and  C5_5 
REMARK    4  A    between atoms: C5_5  and  C6_6 
REMARK    5  A    between atoms: C6_6  and  C8_8 
REMARK    6  A    between atoms: C30_32  and  O4_34 
ROOT
HETATM    1  C8  UNL     1      -1.901   6.248  13.335  1.00  0.00    -0.002 C 
HETATM    2  C9  UNL     1      -2.045   5.772  11.860  1.00  0.00     0.007 C 
HETATM    3  C10 UNL     1      -0.652   5.842  11.208  1.00  0.00     0.015 C 
HETATM    4  C11 UNL     1       0.331   6.005  12.382  1.00  0.00    -0.005 C 
HETATM    5  C12 UNL     1       0.601   4.579  12.955  1.00  0.00     0.021 C 
HETATM    6  C13 UNL     1       1.714   6.598  12.145  1.00  0.00    -0.000 C 
HETATM    7  C14 UNL     1       2.362   7.291  13.119  1.00  0.00    -0.060 C 
HETATM    8  C15 UNL     1       1.682   7.537  14.474  1.00  0.00     0.036 C 
HETATM    9  C16 UNL     1       0.230   7.050  14.656  1.00  0.00     0.015 C 
HETATM   10  C17 UNL     1      -0.513   6.960  13.318  1.00  0.00    -0.028 C 
HETATM   11  C18 UNL     1      -0.680   8.400  12.737  1.00  0.00     0.016 C 
HETATM   12  C19 UNL     1       3.779   7.902  12.938  1.00  0.00    -0.014 C 
HETATM   13  C20 UNL     1       3.597   9.415  12.689  1.00  0.00     0.020 C 
HETATM   14  C21 UNL     1       4.642   7.667  14.200  1.00  0.00     0.021 C 
HETATM   15  C22 UNL     1       6.092   8.116  14.098  1.00  0.00     0.080 C 
HETATM   16  C23 UNL     1       6.630   8.364  12.711  1.00  0.00     0.135 C 
HETATM   17  O1  UNL     1       7.642   9.063  12.588  1.00  0.00    -0.297 OA
HETATM   18  C24 UNL     1       5.985   7.682  11.497  1.00  0.00     0.018 C 
HETATM   19  C25 UNL     1       6.061   8.672  10.311  1.00  0.00     0.023 C 
HETATM   20  C26 UNL     1       6.884   6.475  11.155  1.00  0.00     0.023 C 
HETATM   21  C27 UNL     1       4.532   7.175  11.781  1.00  0.00     0.020 C 
HETATM   22  C28 UNL     1       3.657   7.096  10.528  1.00  0.00     0.090 C 
HETATM   23  C29 UNL     1       2.373   6.368  10.822  1.00  0.00     0.157 C 
HETATM   24  O2  UNL     1       1.874   5.629   9.976  1.00  0.00    -0.293 OA
ENDROOT
BRANCH   1  25
HETATM   25  C6  UNL     1      -3.174   7.011  13.821  1.00  0.00    -0.014 C 
HETATM   26  C7  UNL     1      -3.290   7.031  15.349  1.00  0.00     0.010 C 
BRANCH  25  27
HETATM   27  C5  UNL     1      -4.447   6.374  13.197  1.00  0.00     0.008 C 
BRANCH  27  28
HETATM   28  C4  UNL     1      -4.457   4.840  13.220  1.00  0.00     0.028 C 
BRANCH  28  29
HETATM   29  C3  UNL     1      -5.864   4.307  13.252  1.00  0.00    -0.013 C 
HETATM   30  C2  UNL     1      -6.363   3.273  12.543  1.00  0.00     0.008 C 
HETATM   31  C1  UNL     1      -5.607   2.460  11.533  1.00  0.00     0.055 C 
BRANCH  30  32
HETATM   32  C30 UNL     1      -7.781   2.852  12.705  1.00  0.00     0.171 C 
HETATM   33  O3  UNL     1      -8.725   3.608  12.861  1.00  0.00    -0.646 OA
BRANCH  32  34
HETATM   34  O4  UNL     1      -7.967   1.522  12.666  1.00  0.00    -0.773 OA
HETATM   35  H44 UNL     1      -8.934   1.423  12.784  1.00  0.00     0.167 HD
ENDBRANCH  32  34
ENDBRANCH  30  32
ENDBRANCH  28  29
ENDBRANCH  27  28
ENDBRANCH  25  27
ENDBRANCH   1  25
TORSDOF 6
ENDMDL
