MODEL 1
REMARK minimizedAffinity -9.88741207
REMARK  5 active torsions:
REMARK  status: ('A' for Active; 'I' for Inactive)
REMARK    1  A    between atoms: C2_2  and  C25_28 
REMARK    2  A    between atoms: C3_3  and  C4_4 
REMARK    3  A    between atoms: C4_4  and  C6_6 
REMARK    4  A    between atoms: C15_15  and  O1_16 
REMARK    5  A    between atoms: C25_28  and  C27_30 
ROOT
HETATM    1  C6  UNL     1      -1.465  48.988 -19.927  1.00  0.00     0.001 C 
HETATM    2  C7  UNL     1      -2.816  48.394 -20.432  1.00  0.00     0.006 C 
HETATM    3  C8  UNL     1      -3.052  48.948 -21.846  1.00  0.00     0.009 C 
HETATM    4  C9  UNL     1      -1.753  49.674 -22.172  1.00  0.00     0.036 C 
HETATM    5  C10 UNL     1      -1.703  50.619 -23.378  1.00  0.00     0.123 C 
HETATM    6  C11 UNL     1      -2.774  51.679 -23.474  1.00  0.00     0.014 C 
HETATM    7  C12 UNL     1      -2.724  52.390 -24.609  1.00  0.00     0.014 C 
HETATM    8  C13 UNL     1      -1.562  52.022 -25.507  1.00  0.00     0.124 C 
HETATM    9  C14 UNL     1      -1.592  52.768 -26.845  1.00  0.00     0.078 C 
HETATM   10  C15 UNL     1      -0.395  52.401 -27.724  1.00  0.00     0.121 C 
HETATM   11  C16 UNL     1       0.943  52.569 -27.003  1.00  0.00     0.033 C 
HETATM   12  C17 UNL     1       0.973  51.831 -25.664  1.00  0.00     0.015 C 
HETATM   13  C18 UNL     1      -0.211  52.213 -24.729  1.00  0.00     0.001 C 
HETATM   14  C19 UNL     1      -0.021  53.687 -24.285  1.00  0.00     0.019 C 
HETATM   15  C20 UNL     1      -0.256  51.207 -23.505  1.00  0.00     0.039 C 
HETATM   16  C21 UNL     1       0.307  51.737 -22.170  1.00  0.00     0.010 C 
HETATM   17  C22 UNL     1       0.173  50.729 -21.014  1.00  0.00     0.010 C 
HETATM   18  C23 UNL     1      -1.284  50.261 -20.816  1.00  0.00    -0.033 C 
HETATM   19  C24 UNL     1      -2.144  51.427 -20.281  1.00  0.00     0.016 C 
HETATM   20  O2  UNL     1      -1.677  50.604 -25.805  1.00  0.00    -0.223 OA
HETATM   21  O3  UNL     1      -1.908  49.803 -24.565  1.00  0.00    -0.224 OA
ENDROOT
BRANCH   1  22
HETATM   22  C4  UNL     1      -1.437  49.123 -18.381  1.00  0.00     0.009 C 
HETATM   23  C5  UNL     1      -2.830  49.245 -17.761  1.00  0.00     0.014 C 
BRANCH  22  24
HETATM   24  C3  UNL     1      -0.644  50.357 -17.982  1.00  0.00    -0.019 C 
HETATM   25  C2  UNL     1       0.179  50.519 -16.923  1.00  0.00    -0.083 C 
HETATM   26  C1  UNL     1       0.440  49.471 -15.873  1.00  0.00     0.043 C 
BRANCH  25  27
HETATM   27  C25 UNL     1       0.929  51.838 -16.690  1.00  0.00     0.013 C 
HETATM   28  C26 UNL     1       1.100  52.584 -18.022  1.00  0.00     0.015 C 
BRANCH  27  29
HETATM   29  C27 UNL     1       2.275  51.649 -15.924  1.00  0.00    -0.015 C 
HETATM   30  C28 UNL     1       2.101  51.879 -14.415  1.00  0.00     0.010 C 
HETATM   31  C29 UNL     1       3.370  52.589 -16.443  1.00  0.00     0.010 C 
ENDBRANCH  27  29
ENDBRANCH  25  27
ENDBRANCH  22  24
ENDBRANCH   1  22
BRANCH  10  32
HETATM   32  O1  UNL     1      -0.400  53.214 -28.896  1.00  0.00    -0.395 OA
HETATM   33  H20 UNL     1      -0.290  54.142 -28.624  1.00  0.00     0.210 HD
ENDBRANCH  10  32
TORSDOF 5
ENDMDL
