MODEL 1
REMARK minimizedAffinity -10.5882521
REMARK CNNscore 0.445348144
REMARK CNNaffinity 7.80801964
REMARK  13 active torsions:
REMARK  status: ('A' for Active; 'I' for Inactive)
REMARK    1  A    between atoms: C5_6  and  C6_7 
REMARK    2  A    between atoms: C5_6  and  C31_35 
REMARK    3  A    between atoms: C23_24  and  O2_25 
REMARK    4  A    between atoms: C30_33  and  O4_34 
REMARK    5  A    between atoms: C32_37  and  C33_38 
REMARK    6  A    between atoms: C33_38  and  O6_40 
REMARK    7  A    between atoms: C33_38  and  C35_41 
REMARK    8  A    between atoms: C35_41  and  C37_43 
REMARK    9  A    between atoms: C35_41  and  C38_45 
REMARK   10  A    between atoms: C37_43  and  O7_44 
REMARK   11  A    between atoms: C38_45  and  C39_46 
REMARK   12  A    between atoms: C39_46  and  C40_47 
REMARK   13  A    between atoms: C43_51  and  N2_52 
ROOT
HETATM    1  C1  UNL     1       4.303  50.010 -13.847  1.00  0.00     0.010 C 
HETATM    2  C2  UNL     1       3.028  49.831 -13.021  1.00  0.00    -0.014 C 
HETATM    3  C3  UNL     1       2.590  48.374 -13.010  1.00  0.00     0.030 C 
HETATM    4  C4  UNL     1       1.250  48.191 -12.311  1.00  0.00     0.169 C 
HETATM    5  O1  UNL     1       0.677  49.411 -11.867  1.00  0.00    -0.377 OA
HETATM    6  C5  UNL     1       0.526  50.468 -12.856  1.00  0.00     0.094 C 
HETATM    7  C45 UNL     1       1.892  50.711 -13.561  1.00  0.00     0.045 C 
ENDROOT
BRANCH   6   8
HETATM    8  C6  UNL     1       0.031  51.679 -11.970  1.00  0.00     0.035 C 
HETATM    9  C7  UNL     1      -1.276  51.371 -11.152  1.00  0.00     0.016 C 
HETATM   10  C8  UNL     1      -1.405  52.469 -10.068  1.00  0.00     0.026 C 
HETATM   11  C9  UNL     1      -1.582  51.967  -8.634  1.00  0.00     0.013 C 
HETATM   12  C30 UNL     1      -0.130  53.307 -10.232  1.00  0.00     0.094 C 
HETATM   13  C10 UNL     1      -1.461  53.123  -7.622  1.00  0.00     0.043 C 
HETATM   14  C11 UNL     1      -0.245  53.986  -7.854  1.00  0.00    -0.006 C 
HETATM   15  C12 UNL     1       0.418  53.998  -9.020  1.00  0.00    -0.030 C 
HETATM   16  C26 UNL     1       0.138  54.958  -6.783  1.00  0.00     0.161 C 
HETATM   17  C13 UNL     1       1.648  54.815  -9.298  1.00  0.00     0.032 C 
HETATM   18  C14 UNL     1       2.682  54.146 -10.267  1.00  0.00    -0.004 C 
HETATM   19  C20 UNL     1       2.386  55.344  -8.026  1.00  0.00    -0.018 C 
HETATM   20  C15 UNL     1       3.699  55.216 -10.715  1.00  0.00     0.010 C 
HETATM   21  C27 UNL     1       2.050  53.344 -11.438  1.00  0.00     0.018 C 
HETATM   22  C16 UNL     1       4.341  55.970  -9.503  1.00  0.00    -0.009 C 
HETATM   23  C17 UNL     1       5.319  55.060  -8.755  1.00  0.00     0.005 C 
HETATM   24  C25 UNL     1       3.227  56.528  -8.597  1.00  0.00     0.002 C 
HETATM   25  C18 UNL     1       4.794  54.442  -7.466  1.00  0.00     0.001 C 
HETATM   26  C19 UNL     1       3.286  54.241  -7.363  1.00  0.00     0.011 C 
HETATM   27  C24 UNL     1       3.613  57.518  -7.503  1.00  0.00     0.037 C 
HETATM   28  C23 UNL     1       2.344  58.159  -6.895  1.00  0.00     0.119 C 
HETATM   29  C22 UNL     1       1.064  57.317  -7.071  1.00  0.00     0.045 C 
HETATM   30  C21 UNL     1       1.390  55.827  -6.933  1.00  0.00     0.072 C 
HETATM   31  C28 UNL     1       0.933  52.388 -10.907  1.00  0.00    -0.002 C 
HETATM   32  C29 UNL     1       1.562  51.358  -9.938  1.00  0.00     0.019 C 
HETATM   33  O3  UNL     1      -0.591  55.078  -5.798  1.00  0.00    -0.292 OA
BRANCH  28  34
HETATM   34  O2  UNL     1       2.599  58.374  -5.507  1.00  0.00    -0.396 OA
HETATM   35  H32 UNL     1       1.801  58.765  -5.116  1.00  0.00     0.210 HD
ENDBRANCH  28  34
BRANCH  12  36
HETATM   36  O4  UNL     1      -0.472  54.393 -11.124  1.00  0.00    -0.384 OA
HETATM   37  H41 UNL     1      -1.170  54.104 -11.735  1.00  0.00     0.211 HD
ENDBRANCH  12  36
ENDBRANCH   6   8
BRANCH   6  38
HETATM   38  C31 UNL     1      -0.608  50.029 -13.787  1.00  0.00     0.189 A 
HETATM   39  O5  UNL     1      -1.068  51.012 -14.710  1.00  0.00    -0.369 OA
HETATM   40  C32 UNL     1      -0.432  49.857 -15.301  1.00  0.00     0.189 A 
BRANCH  40  41
HETATM   41  C33 UNL     1      -1.323  49.209 -16.366  1.00  0.00     0.092 C 
HETATM   42  C34 UNL     1      -2.733  49.097 -15.742  1.00  0.00     0.049 C 
BRANCH  41  43
HETATM   43  O6  UNL     1      -0.907  47.834 -16.487  1.00  0.00    -0.387 OA
HETATM   44  H47 UNL     1       0.066  47.855 -16.537  1.00  0.00     0.210 HD
ENDBRANCH  41  43
BRANCH  41  45
HETATM   45  C35 UNL     1      -1.345  49.859 -17.817  1.00  0.00     0.011 C 
HETATM   46  C36 UNL     1      -2.444  50.962 -17.907  1.00  0.00     0.020 C 
BRANCH  45  47
HETATM   47  C37 UNL     1      -1.609  48.800 -18.912  1.00  0.00     0.176 C 
BRANCH  47  48
HETATM   48  O7  UNL     1      -2.116  47.596 -18.339  1.00  0.00    -0.400 OA
HETATM   49  H53 UNL     1      -1.558  46.860 -18.653  1.00  0.00     0.209 HD
ENDBRANCH  47  48
ENDBRANCH  45  47
BRANCH  45  50
HETATM   50  C38 UNL     1      -0.008  50.653 -18.113  1.00  0.00     0.019 C 
BRANCH  50  51
HETATM   51  C39 UNL     1      -0.113  52.151 -18.457  1.00  0.00     0.039 C 
BRANCH  51  52
HETATM   52  C40 UNL     1       0.184  52.403 -19.922  1.00  0.00    -0.053 A 
HETATM   53  C41 UNL     1      -0.306  51.552 -20.910  1.00  0.00     0.024 A 
HETATM   54  C42 UNL     1      -0.014  51.821 -22.239  1.00  0.00     0.090 A 
HETATM   55  N1  UNL     1       0.713  52.899 -22.561  1.00  0.00    -0.353 N 
HETATM   56  C43 UNL     1       1.175  53.771 -21.656  1.00  0.00     0.098 A 
HETATM   57  H60 UNL     1       0.937  53.068 -23.537  1.00  0.00     0.166 HD
HETATM   58  C44 UNL     1       0.946  53.511 -20.308  1.00  0.00     0.055 A 
BRANCH  56  59
HETATM   59  N2  UNL     1       1.950  54.839 -22.069  1.00  0.00    -0.385 N 
HETATM   60  H61 UNL     1       1.871  55.678 -21.493  1.00  0.00     0.157 HD
HETATM   61  H62 UNL     1       2.052  55.062 -23.051  1.00  0.00     0.157 HD
ENDBRANCH  56  59
ENDBRANCH  51  52
ENDBRANCH  50  51
ENDBRANCH  45  50
ENDBRANCH  41  45
ENDBRANCH  40  41
ENDBRANCH   6  38
TORSDOF 13
ENDMDL
