MODEL 1
REMARK minimizedAffinity -7.80810976
REMARK CNNscore 0.885282397
REMARK CNNaffinity 7.59755516
REMARK  4 active torsions:
REMARK  status: ('A' for Active; 'I' for Inactive)
REMARK    1  A    between atoms: C4_4  and  C5_5 
REMARK    2  A    between atoms: C5_5  and  C6_6 
REMARK    3  A    between atoms: C6_6  and  C7_7 
REMARK    4  A    between atoms: C9_9  and  O1_10 
ROOT
HETATM    1  C7  UNL     1      -2.588  51.393 -10.812  1.00  0.00    -0.007 C 
HETATM    2  C8  UNL     1      -1.362  50.673 -11.375  1.00  0.00     0.038 C 
HETATM    3  C9  UNL     1      -0.016  51.108 -10.779  1.00  0.00     0.131 C 
HETATM    4  C10 UNL     1       0.210  52.674 -10.793  1.00  0.00     0.013 C 
HETATM    5  C11 UNL     1       0.370  53.098 -12.287  1.00  0.00     0.023 C 
HETATM    6  C12 UNL     1       1.525  53.148 -10.082  1.00  0.00    -0.067 C 
HETATM    7  C13 UNL     1       2.634  52.384  -9.991  1.00  0.00    -0.022 C 
HETATM    8  C14 UNL     1       3.945  52.797  -9.386  1.00  0.00     0.034 C 
HETATM    9  C15 UNL     1       3.908  54.151  -8.653  1.00  0.00     0.013 C 
HETATM   10  C16 UNL     1       5.310  54.627  -8.135  1.00  0.00     0.018 C 
HETATM   11  C17 UNL     1       5.772  53.681  -6.998  1.00  0.00     0.023 C 
HETATM   12  C18 UNL     1       6.438  54.651  -9.179  1.00  0.00     0.023 C 
HETATM   13  C19 UNL     1       5.189  56.041  -7.553  1.00  0.00     0.135 C 
HETATM   14  O2  UNL     1       5.791  56.390  -6.534  1.00  0.00    -0.297 OA
HETATM   15  C20 UNL     1       4.394  57.056  -8.337  1.00  0.00     0.080 C 
HETATM   16  C21 UNL     1       3.010  56.521  -8.661  1.00  0.00     0.017 C 
HETATM   17  C22 UNL     1       3.029  55.186  -9.449  1.00  0.00    -0.031 C 
HETATM   18  C23 UNL     1       3.535  55.455 -10.887  1.00  0.00     0.016 C 
HETATM   19  C24 UNL     1       1.563  54.568  -9.495  1.00  0.00     0.024 C 
HETATM   20  C25 UNL     1       0.514  55.494 -10.121  1.00  0.00     0.010 C 
HETATM   21  C26 UNL     1      -0.906  54.919 -10.166  1.00  0.00     0.011 C 
HETATM   22  C27 UNL     1      -1.043  53.365 -10.092  1.00  0.00    -0.027 C 
HETATM   23  C28 UNL     1      -1.144  52.967  -8.582  1.00  0.00     0.016 C 
HETATM   24  C29 UNL     1      -2.395  52.936 -10.807  1.00  0.00    -0.005 C 
HETATM   25  C30 UNL     1      -3.645  53.631 -10.228  1.00  0.00     0.011 C 
ENDROOT
BRANCH   1  26
HETATM   26  C6  UNL     1      -3.879  50.899 -11.518  1.00  0.00     0.009 C 
BRANCH  26  27
HETATM   27  C5  UNL     1      -4.502  49.619 -10.948  1.00  0.00     0.028 C 
BRANCH  27  28
HETATM   28  C4  UNL     1      -5.719  49.939 -10.118  1.00  0.00    -0.025 C 
HETATM   29  C2  UNL     1      -6.954  49.412 -10.231  1.00  0.00    -0.091 C 
HETATM   30  C1  UNL     1      -8.050  49.816  -9.279  1.00  0.00     0.042 C 
HETATM   31  C3  UNL     1      -7.374  48.405 -11.266  1.00  0.00     0.042 C 
ENDBRANCH  27  28
ENDBRANCH  26  27
ENDBRANCH   1  26
BRANCH   3  32
HETATM   32  O1  UNL     1       0.971  50.411 -11.555  1.00  0.00    -0.394 OA
HETATM   33  H16 UNL     1       0.835  49.459 -11.410  1.00  0.00     0.210 HD
ENDBRANCH   3  32
TORSDOF 4
ENDMDL
