MODEL 1
REMARK minimizedAffinity -6.18147278
REMARK CNNscore 0.588257849
REMARK CNNaffinity 6.61413193
REMARK  4 active torsions:
REMARK  status: ('A' for Active; 'I' for Inactive)
REMARK    1  A    between atoms: C2_2  and  C4_4 
REMARK    2  A    between atoms: C4_4  and  C5_5 
REMARK    3  A    between atoms: C5_5  and  O1_6 
REMARK    4  A    between atoms: C8_9  and  C9_10 
ROOT
HETATM    1  C9  UNL     1     -13.124 -11.253  27.194  1.00  0.00     0.001 C 
HETATM    2  C10 UNL     1     -14.556 -11.639  26.740  1.00  0.00     0.007 C 
HETATM    3  C11 UNL     1     -15.531 -10.714  27.489  1.00  0.00     0.011 C 
HETATM    4  C12 UNL     1     -14.654  -9.589  28.074  1.00  0.00    -0.032 C 
HETATM    5  C13 UNL     1     -14.458  -8.540  26.934  1.00  0.00     0.016 C 
HETATM    6  C14 UNL     1     -15.240  -8.907  29.338  1.00  0.00     0.004 C 
HETATM    7  C15 UNL     1     -16.470  -8.034  29.058  1.00  0.00     0.007 C 
HETATM    8  C16 UNL     1     -17.031  -7.507  30.372  1.00  0.00     0.007 C 
HETATM    9  C17 UNL     1     -16.108  -6.445  31.006  1.00  0.00     0.010 C 
HETATM   10  C18 UNL     1     -16.283  -4.979  30.437  1.00  0.00     0.018 C 
HETATM   11  C19 UNL     1     -16.376  -3.956  31.595  1.00  0.00     0.023 C 
HETATM   12  C20 UNL     1     -17.565  -4.762  29.601  1.00  0.00     0.023 C 
HETATM   13  C21 UNL     1     -15.067  -4.602  29.578  1.00  0.00     0.135 C 
HETATM   14  O2  UNL     1     -15.182  -4.133  28.443  1.00  0.00    -0.297 OA
HETATM   15  C22 UNL     1     -13.691  -4.741  30.190  1.00  0.00     0.080 C 
HETATM   16  C23 UNL     1     -13.655  -5.784  31.291  1.00  0.00     0.018 C 
HETATM   17  C24 UNL     1     -14.624  -6.913  31.004  1.00  0.00    -0.026 A 
HETATM   18  C25 UNL     1     -14.301  -8.229  31.663  1.00  0.00     0.021 A 
HETATM   19  C26 UNL     1     -14.170  -8.136  30.149  1.00  0.00    -0.027 A 
HETATM   20  C27 UNL     1     -12.739  -8.135  29.590  1.00  0.00     0.011 C 
HETATM   21  C28 UNL     1     -12.260  -9.369  28.803  1.00  0.00     0.011 C 
HETATM   22  C29 UNL     1     -13.359 -10.386  28.472  1.00  0.00    -0.032 C 
HETATM   23  C30 UNL     1     -13.538 -11.297  29.717  1.00  0.00     0.016 C 
ENDROOT
BRANCH   1  24
HETATM   24  C8  UNL     1     -12.116 -12.431  27.150  1.00  0.00     0.014 C 
HETATM   25  C7  UNL     1     -10.957 -12.325  26.144  1.00  0.00     0.010 C 
HETATM   26  C6  UNL     1     -10.601 -13.680  25.535  1.00  0.00     0.041 C 
HETATM   27  C4  UNL     1     -10.611 -14.831  26.571  1.00  0.00     0.085 C 
HETATM   28  O3  UNL     1     -11.849 -14.853  27.323  1.00  0.00    -0.377 OA
HETATM   29  C31 UNL     1     -12.782 -13.806  27.062  1.00  0.00     0.174 C 
BRANCH  27  30
HETATM   30  C2  UNL     1      -9.462 -14.680  27.633  1.00  0.00     0.014 C 
HETATM   31  C1  UNL     1      -8.044 -14.593  27.062  1.00  0.00     0.012 C 
HETATM   32  C3  UNL     1      -9.495 -15.774  28.713  1.00  0.00     0.012 C 
ENDBRANCH  27  30
BRANCH  27  33
HETATM   33  C5  UNL     1     -10.565 -16.188  25.816  1.00  0.00     0.202 C 
BRANCH  33  34
HETATM   34  O1  UNL     1      -9.927 -16.122  24.546  1.00  0.00    -0.398 OA
HETATM   35  H10 UNL     1     -10.545 -15.700  23.928  1.00  0.00     0.209 HD
ENDBRANCH  33  34
ENDBRANCH  27  33
ENDBRANCH   1  24
TORSDOF 4
ENDMDL
