MODEL 1
REMARK minimizedAffinity -8.2463932
REMARK CNNscore 0.552082002
REMARK CNNaffinity 6.38133287
REMARK  11 active torsions:
REMARK  status: ('A' for Active; 'I' for Inactive)
REMARK    1  A    between atoms: C3_3  and  O1_4 
REMARK    2  A    between atoms: N1_14  and  O2_16 
REMARK    3  A    between atoms: O2_16  and  C13_17 
REMARK    4  A    between atoms: C13_17  and  C14_18 
REMARK       I    between atoms: C14_18  and  N2_20 
REMARK    5  A    between atoms: N2_20  and  C15_21 
REMARK    6  A    between atoms: C15_21  and  C16_22 
REMARK    7  A    between atoms: C15_21  and  C17_25 
REMARK    8  A    between atoms: C16_22  and  O5_24 
REMARK    9  A    between atoms: C17_25  and  O6_26 
REMARK   10  A    between atoms: C17_25  and  C18_27 
REMARK   11  A    between atoms: C22_31  and  N3_32 
ROOT
HETATM    1  C1  UNL     1      -5.959  14.823  15.134  1.00  0.00     0.015 C 
HETATM    2  C2  UNL     1      -5.509  14.765  16.247  1.00  0.00    -0.078 C 
HETATM    3  C3  UNL     1      -4.941  14.696  17.601  1.00  0.00     0.128 C 
HETATM    4  C4  UNL     1      -4.750  13.250  18.056  1.00  0.00     0.052 C 
HETATM    5  C5  UNL     1      -4.613  13.335  19.572  1.00  0.00     0.010 C 
HETATM    6  C6  UNL     1      -5.324  14.631  20.019  1.00  0.00     0.002 C 
HETATM    7  C7  UNL     1      -6.463  14.422  21.038  1.00  0.00    -0.004 C 
HETATM    8  C8  UNL     1      -5.960  13.883  22.383  1.00  0.00     0.010 C 
HETATM    9  C9  UNL     1      -7.097  13.862  23.400  1.00  0.00     0.035 C 
HETATM   10  C10 UNL     1      -8.316  13.111  22.910  1.00  0.00    -0.069 C 
HETATM   11  C11 UNL     1      -8.947  12.270  23.751  1.00  0.00     0.030 C 
HETATM   12  C12 UNL     1     -10.246  11.640  23.412  1.00  0.00     0.032 C 
HETATM   13  N1  UNL     1     -10.875  11.006  24.362  1.00  0.00    -0.271 N 
ATOM     14  H1  UNL     1     -10.505  10.870  25.303  1.00  0.00     0.194 HD
HETATM   15  C24 UNL     1     -10.810  11.858  22.025  1.00  0.00     0.060 C 
HETATM   16  C25 UNL     1      -9.730  12.240  21.020  1.00  0.00     0.020 C 
HETATM   17  C26 UNL     1      -8.812  13.409  21.486  1.00  0.00    -0.016 C 
HETATM   18  C27 UNL     1      -9.621  14.725  21.527  1.00  0.00     0.020 C 
HETATM   19  C28 UNL     1      -7.586  13.501  20.498  1.00  0.00     0.002 C 
HETATM   20  C29 UNL     1      -7.949  13.847  19.035  1.00  0.00     0.007 C 
HETATM   21  C30 UNL     1      -7.365  15.173  18.552  1.00  0.00     0.014 C 
HETATM   22  C31 UNL     1      -5.824  15.345  18.719  1.00  0.00     0.003 C 
HETATM   23  C32 UNL     1      -5.563  16.869  18.817  1.00  0.00     0.020 C 
ENDROOT
BRANCH   3  24
HETATM   24  O1  UNL     1      -3.647  15.303  17.542  1.00  0.00    -0.377 OA
HETATM   25  H2  UNL     1      -3.225  15.222  18.412  1.00  0.00     0.211 HD
ENDBRANCH   3  24
BRANCH  13  26
HETATM   26  O2  UNL     1     -12.123  10.535  23.928  1.00  0.00    -0.271 OA
BRANCH  26  27
HETATM   27  C13 UNL     1     -12.555   9.496  24.801  1.00  0.00     0.303 C 
BRANCH  27  28
HETATM   28  C14 UNL     1     -12.280   8.132  24.189  1.00  0.00     0.244 C 
HETATM   29  O3  UNL     1     -11.204   7.832  23.677  1.00  0.00    -0.271 OA
HETATM   30  N2  UNL     1     -13.363   7.285  24.175  1.00  0.00    -0.342 N 
HETATM   31  H16 UNL     1     -14.203   7.540  24.692  1.00  0.00     0.163 HD
BRANCH  30  32
HETATM   32  C15 UNL     1     -13.306   5.963  23.543  1.00  0.00     0.216 C 
BRANCH  32  33
HETATM   33  C16 UNL     1     -13.767   6.044  22.088  1.00  0.00     0.166 C 
HETATM   34  O4  UNL     1     -14.421   5.199  21.490  1.00  0.00    -0.648 OA
BRANCH  33  35
HETATM   35  O5  UNL     1     -13.417   7.185  21.455  1.00  0.00    -0.775 OA
HETATM   36  H18 UNL     1     -13.720   7.051  20.527  1.00  0.00     0.167 HD
ENDBRANCH  33  35
ENDBRANCH  32  33
BRANCH  32  37
HETATM   37  C17 UNL     1     -14.139   4.909  24.328  1.00  0.00     0.184 C 
BRANCH  37  38
HETATM   38  O6  UNL     1     -15.275   4.491  23.551  1.00  0.00    -0.388 OA
HETATM   39  H20 UNL     1     -14.941   3.940  22.819  1.00  0.00     0.210 HD
ENDBRANCH  37  38
BRANCH  37  40
HETATM   40  C18 UNL     1     -13.337   3.716  24.845  1.00  0.00    -0.025 A 
HETATM   41  C19 UNL     1     -12.451   2.991  24.026  1.00  0.00     0.010 A 
HETATM   42  C20 UNL     1     -11.734   1.895  24.523  1.00  0.00     0.003 A 
HETATM   43  C21 UNL     1     -11.894   1.488  25.843  1.00  0.00     0.036 A 
HETATM   44  C22 UNL     1     -12.792   2.178  26.663  1.00  0.00     0.103 A 
HETATM   45  C23 UNL     1     -13.516   3.278  26.171  1.00  0.00     0.045 A 
BRANCH  44  46
HETATM   46  N3  UNL     1     -12.985   1.742  28.054  1.00  0.00    -0.116 N 
HETATM   47  O7  UNL     1     -12.170   2.141  28.902  1.00  0.00    -0.532 OA
HETATM   48  O8  UNL     1     -13.951   0.999  28.300  1.00  0.00    -0.532 OA
ENDBRANCH  44  46
ENDBRANCH  37  40
ENDBRANCH  32  37
ENDBRANCH  30  32
ENDBRANCH  27  28
ENDBRANCH  26  27
ENDBRANCH  13  26
TORSDOF 11
ENDMDL
