MODEL 1
REMARK minimizedAffinity -7.49624538
REMARK CNNscore 0.78207761
REMARK CNNaffinity 7.14046812
REMARK  7 active torsions:
REMARK  status: ('A' for Active; 'I' for Inactive)
REMARK    1  A    between atoms: C2_2  and  C4_4 
REMARK    2  A    between atoms: C7_7  and  C8_8 
REMARK    3  A    between atoms: C8_8  and  O2_10 
REMARK    4  A    between atoms: C15_17  and  O3_18 
REMARK    5  A    between atoms: C21_24  and  O4_25 
REMARK    6  A    between atoms: C22_26  and  C24_28 
REMARK    7  A    between atoms: C24_28  and  O5_29 
ROOT
HETATM    1  C4  UNL     1      -2.515  52.267 -12.370  1.00  0.00     0.019 C 
HETATM    2  C5  UNL     1      -3.189  51.190 -13.264  1.00  0.00     0.011 C 
HETATM    3  C6  UNL     1      -2.194  50.023 -13.378  1.00  0.00     0.021 C 
HETATM    4  C7  UNL     1      -0.836  50.665 -13.080  1.00  0.00     0.050 C 
HETATM    5  C9  UNL     1       0.262  49.702 -12.620  1.00  0.00     0.022 C 
HETATM    6  C10 UNL     1       1.498  50.500 -12.163  1.00  0.00     0.011 C 
HETATM    7  C11 UNL     1       1.235  51.563 -11.027  1.00  0.00    -0.032 C 
HETATM    8  C12 UNL     1       0.928  50.705  -9.756  1.00  0.00     0.016 C 
HETATM    9  C13 UNL     1      -0.017  52.435 -11.402  1.00  0.00     0.003 C 
HETATM   10  C14 UNL     1      -0.414  53.342 -10.231  1.00  0.00     0.038 C 
HETATM   11  C15 UNL     1       0.756  54.073  -9.563  1.00  0.00     0.124 C 
HETATM   12  C16 UNL     1       2.076  54.058 -10.373  1.00  0.00     0.032 C 
HETATM   13  C17 UNL     1       3.246  54.994  -9.740  1.00  0.00    -0.033 C 
HETATM   14  C18 UNL     1       4.101  55.556 -10.918  1.00  0.00     0.016 C 
HETATM   15  C19 UNL     1       2.647  56.245  -9.021  1.00  0.00     0.012 C 
HETATM   16  C20 UNL     1       3.664  57.093  -8.253  1.00  0.00     0.033 C 
HETATM   17  C21 UNL     1       4.463  56.269  -7.247  1.00  0.00     0.128 C 
HETATM   18  C22 UNL     1       5.163  55.016  -7.860  1.00  0.00     0.007 C 
HETATM   19  C23 UNL     1       6.377  55.471  -8.698  1.00  0.00     0.020 C 
HETATM   20  C25 UNL     1       4.103  54.183  -8.696  1.00  0.00     0.007 C 
HETATM   21  C26 UNL     1       4.647  52.888  -9.323  1.00  0.00     0.007 C 
HETATM   22  C27 UNL     1       3.500  51.976  -9.750  1.00  0.00     0.011 C 
HETATM   23  C28 UNL     1       2.522  52.573 -10.794  1.00  0.00    -0.030 C 
HETATM   24  C29 UNL     1       3.313  52.691 -12.133  1.00  0.00     0.016 C 
HETATM   25  C30 UNL     1      -1.212  51.576 -11.891  1.00  0.00     0.017 C 
ENDROOT
BRANCH   4  26
HETATM   26  C8  UNL     1      -0.382  51.396 -14.353  1.00  0.00     0.149 C 
HETATM   27  O1  UNL     1      -0.467  51.010 -15.506  1.00  0.00    -0.649 OA
BRANCH  26  28
HETATM   28  O2  UNL     1       0.185  52.594 -14.096  1.00  0.00    -0.776 OA
HETATM   29  H11 UNL     1       0.425  52.937 -14.982  1.00  0.00     0.167 HD
ENDBRANCH  26  28
ENDBRANCH   4  26
BRANCH   1  30
HETATM   30  C2  UNL     1      -3.501  52.792 -11.339  1.00  0.00    -0.088 C 
HETATM   31  C1  UNL     1      -3.755  54.094 -11.116  1.00  0.00     0.014 C 
HETATM   32  C3  UNL     1      -4.189  51.731 -10.520  1.00  0.00     0.043 C 
ENDBRANCH   1  30
BRANCH  11  33
HETATM   33  O3  UNL     1       0.968  53.589  -8.240  1.00  0.00    -0.395 OA
HETATM   34  H23 UNL     1       0.112  53.612  -7.778  1.00  0.00     0.210 HD
ENDBRANCH  11  33
BRANCH  18  35
HETATM   35  C24 UNL     1       5.702  54.173  -6.656  1.00  0.00     0.176 C 
BRANCH  35  36
HETATM   36  O5  UNL     1       7.061  53.774  -6.801  1.00  0.00    -0.400 OA
HETATM   37  H39 UNL     1       7.617  54.542  -6.587  1.00  0.00     0.209 HD
ENDBRANCH  35  36
ENDBRANCH  18  35
BRANCH  17  38
HETATM   38  O4  UNL     1       3.593  55.903  -6.170  1.00  0.00    -0.395 OA
HETATM   39  H33 UNL     1       2.901  55.309  -6.513  1.00  0.00     0.210 HD
ENDBRANCH  17  38
TORSDOF 7
ENDMDL
