MODEL 1
REMARK minimizedAffinity -9.05145741
REMARK  9 active torsions:
REMARK  status: ('A' for Active; 'I' for Inactive)
REMARK    1  A    between atoms: C11_11  and  C12_12 
REMARK    2  A    between atoms: C12_12  and  O1_13 
REMARK    3  A    between atoms: C12_12  and  C13_14 
REMARK    4  A    between atoms: C17_19  and  C18_20 
REMARK    5  A    between atoms: C19_21  and  C20_22 
REMARK    6  A    between atoms: C20_22  and  O4_24 
REMARK    7  A    between atoms: C21_25  and  C22_26 
REMARK    8  A    between atoms: C22_26  and  C23_28 
REMARK    9  A    between atoms: C23_28  and  O6_30 
ROOT
HETATM    1  C1  UNL     1       6.776  59.324 -35.592  1.00  0.00     0.048 C 
HETATM    2  C2  UNL     1       6.593  60.607 -34.836  1.00  0.00    -0.065 C 
HETATM    3  C3  UNL     1       5.380  61.072 -34.464  1.00  0.00    -0.015 C 
HETATM    4  C4  UNL     1       5.213  62.331 -33.633  1.00  0.00     0.014 C 
HETATM    5  C5  UNL     1       3.822  62.419 -32.993  1.00  0.00     0.009 C 
HETATM    6  C6  UNL     1       3.807  63.520 -31.941  1.00  0.00     0.001 C 
HETATM    7  C7  UNL     1       4.303  64.853 -32.491  1.00  0.00     0.005 C 
HETATM    8  C8  UNL     1       5.663  64.761 -33.234  1.00  0.00    -0.013 C 
HETATM    9  C9  UNL     1       6.036  66.183 -33.642  1.00  0.00     0.010 C 
HETATM   10  C10 UNL     1       5.566  63.691 -34.368  1.00  0.00     0.008 C 
HETATM   11  C11 UNL     1       6.773  63.479 -35.349  1.00  0.00     0.059 C 
HETATM   12  C21 UNL     1       7.907  62.691 -34.666  1.00  0.00    -0.002 C 
HETATM   13  C25 UNL     1       7.811  61.350 -34.511  1.00  0.00     0.018 C 
ENDROOT
BRANCH  11  14
HETATM   14  C12 UNL     1       7.248  64.575 -36.363  1.00  0.00     0.166 C 
BRANCH  14  15
HETATM   15  O1  UNL     1       6.447  64.375 -37.572  1.00  0.00    -0.391 OA
HETATM   16  H19 UNL     1       5.560  64.727 -37.392  1.00  0.00     0.210 HD
ENDBRANCH  14  15
BRANCH  14  17
HETATM   17  C13 UNL     1       7.129  66.100 -35.947  1.00  0.00     0.111 C 
HETATM   18  C14 UNL     1       7.352  66.375 -34.460  1.00  0.00     0.054 C 
HETATM   19  O2  UNL     1       8.254  66.796 -36.588  1.00  0.00    -0.369 OA
HETATM   20  C15 UNL     1       7.757  67.671 -37.607  1.00  0.00     0.197 C 
HETATM   21  C16 UNL     1       6.291  67.716 -37.414  1.00  0.00     0.009 C 
HETATM   22  C17 UNL     1       5.914  66.835 -36.484  1.00  0.00    -0.023 C 
BRANCH  22  23
HETATM   23  C18 UNL     1       4.573  66.664 -35.982  1.00  0.00     0.017 C 
HETATM   24  C19 UNL     1       3.555  66.172 -36.704  1.00  0.00     0.082 C 
BRANCH  24  25
HETATM   25  C20 UNL     1       2.242  65.989 -36.077  1.00  0.00     0.165 C 
HETATM   26  O3  UNL     1       1.275  66.722 -36.155  1.00  0.00    -0.647 OA
BRANCH  25  27
HETATM   27  O4  UNL     1       2.230  64.858 -35.353  1.00  0.00    -0.773 OA
HETATM   28  H28 UNL     1       1.321  64.820 -34.989  1.00  0.00     0.167 HD
ENDBRANCH  25  27
ENDBRANCH  24  25
ENDBRANCH  22  23
ENDBRANCH  14  17
ENDBRANCH  11  14
BRANCH  12  29
HETATM   29  C22 UNL     1       9.097  63.452 -34.165  1.00  0.00     0.184 C 
HETATM   30  O5  UNL     1       9.048  64.025 -33.072  1.00  0.00    -0.290 OA
BRANCH  29  31
HETATM   31  C23 UNL     1      10.389  63.509 -34.989  1.00  0.00     0.188 C 
HETATM   32  C24 UNL     1      10.274  62.627 -36.223  1.00  0.00     0.048 C 
BRANCH  31  33
HETATM   33  O6  UNL     1      11.481  63.015 -34.209  1.00  0.00    -0.388 OA
HETATM   34  H33 UNL     1      11.090  62.370 -33.585  1.00  0.00     0.210 HD
ENDBRANCH  31  33
ENDBRANCH  29  31
ENDBRANCH  12  29
TORSDOF 9
ENDMDL
