MODEL 1
REMARK minimizedAffinity -10.0559807
REMARK  9 active torsions:
REMARK  status: ('A' for Active; 'I' for Inactive)
REMARK    1  A    between atoms: C2_2  and  C3_3 
REMARK    2  A    between atoms: C2_2  and  C9_12 
REMARK    3  A    between atoms: C3_3  and  C4_4 
REMARK    4  A    between atoms: C4_4  and  C5_5 
REMARK    5  A    between atoms: C5_5  and  O1_6 
REMARK    6  A    between atoms: C5_5  and  C6_7 
REMARK    7  A    between atoms: C6_7  and  O2_9 
REMARK    8  A    between atoms: C6_7  and  C8_10 
REMARK    9  A    between atoms: C8_10  and  O3_11 
ROOT
HETATM    1  C9  UNL     1      -3.527  50.688 -25.072  1.00  0.00    -0.002 C 
HETATM    2  C10 UNL     1      -4.865  50.039 -24.622  1.00  0.00     0.006 C 
HETATM    3  C11 UNL     1      -4.841  49.967 -23.085  1.00  0.00     0.011 C 
HETATM    4  C12 UNL     1      -3.643  50.838 -22.650  1.00  0.00    -0.032 C 
HETATM    5  C13 UNL     1      -4.149  52.314 -22.590  1.00  0.00     0.016 C 
HETATM    6  C14 UNL     1      -3.024  50.437 -21.283  1.00  0.00     0.004 C 
HETATM    7  C15 UNL     1      -3.875  50.822 -20.061  1.00  0.00     0.007 C 
HETATM    8  C16 UNL     1      -3.234  50.272 -18.787  1.00  0.00     0.007 C 
HETATM    9  C17 UNL     1      -1.919  51.009 -18.486  1.00  0.00     0.010 C 
HETATM   10  C18 UNL     1      -1.144  50.491 -17.227  1.00  0.00     0.018 C 
HETATM   11  C19 UNL     1      -1.871  50.926 -15.942  1.00  0.00     0.023 C 
HETATM   12  C20 UNL     1      -0.961  48.962 -17.195  1.00  0.00     0.023 C 
HETATM   13  C21 UNL     1       0.252  51.138 -17.201  1.00  0.00     0.135 C 
HETATM   14  O4  UNL     1       1.180  50.676 -16.537  1.00  0.00    -0.297 OA
HETATM   15  C22 UNL     1       0.428  52.407 -17.996  1.00  0.00     0.080 C 
HETATM   16  C23 UNL     1       0.151  52.134 -19.468  1.00  0.00     0.018 C 
HETATM   17  C24 UNL     1      -0.983  51.126 -19.695  1.00  0.00    -0.026 A 
HETATM   18  C25 UNL     1      -0.623  49.904 -20.503  1.00  0.00     0.021 A 
HETATM   19  C26 UNL     1      -1.560  50.924 -21.127  1.00  0.00    -0.027 A 
HETATM   20  C27 UNL     1      -0.987  51.807 -22.244  1.00  0.00     0.011 C 
HETATM   21  C28 UNL     1      -1.463  51.549 -23.685  1.00  0.00     0.011 C 
HETATM   22  C29 UNL     1      -2.616  50.544 -23.808  1.00  0.00    -0.032 C 
HETATM   23  C30 UNL     1      -2.004  49.118 -23.751  1.00  0.00     0.016 C 
ENDROOT
BRANCH   1  24
HETATM   24  C2  UNL     1      -3.102  50.269 -26.511  1.00  0.00    -0.014 C 
HETATM   25  C1  UNL     1      -3.219  48.782 -26.871  1.00  0.00     0.010 C 
BRANCH  24  26
HETATM   26  C3  UNL     1      -1.701  50.817 -26.876  1.00  0.00     0.007 C 
BRANCH  26  27
HETATM   27  C4  UNL     1      -1.669  52.348 -27.033  1.00  0.00     0.035 C 
BRANCH  27  28
HETATM   28  C5  UNL     1      -0.289  52.911 -27.413  1.00  0.00     0.154 C 
BRANCH  28  29
HETATM   29  O1  UNL     1      -0.235  52.981 -28.847  1.00  0.00    -0.392 OA
HETATM   30  H10 UNL     1      -0.765  53.739 -29.141  1.00  0.00     0.210 HD
ENDBRANCH  28  29
BRANCH  28  31
HETATM   31  C6  UNL     1       0.922  52.059 -26.901  1.00  0.00     0.101 C 
HETATM   32  C7  UNL     1       0.417  50.689 -26.408  1.00  0.00     0.051 C 
BRANCH  31  33
HETATM   33  O2  UNL     1       1.572  52.661 -25.767  1.00  0.00    -0.385 OA
HETATM   34  H14 UNL     1       1.566  53.626 -25.887  1.00  0.00     0.210 HD
ENDBRANCH  31  33
BRANCH  31  35
HETATM   35  C8  UNL     1       1.983  51.853 -28.006  1.00  0.00     0.204 C 
BRANCH  35  36
HETATM   36  O3  UNL     1       3.280  51.582 -27.482  1.00  0.00    -0.398 OA
HETATM   37  H17 UNL     1       3.620  52.412 -27.106  1.00  0.00     0.209 HD
ENDBRANCH  35  36
ENDBRANCH  31  35
ENDBRANCH  28  31
ENDBRANCH  27  28
ENDBRANCH  26  27
ENDBRANCH  24  26
ENDBRANCH   1  24
TORSDOF 9
ENDMDL
