MODEL 1
REMARK minimizedAffinity -9.57252407
REMARK  13 active torsions:
REMARK  status: ('A' for Active; 'I' for Inactive)
REMARK    1  A    between atoms: C4_4  and  C5_5 
REMARK    2  A    between atoms: C5_5  and  C6_6 
REMARK    3  A    between atoms: C6_6  and  C7_7 
REMARK    4  A    between atoms: C9_9  and  C10_10 
REMARK    5  A    between atoms: C11_11  and  C12_12 
REMARK    6  A    between atoms: C14_14  and  C15_15 
REMARK    7  A    between atoms: C18_18  and  C19_19 
REMARK    8  A    between atoms: C19_19  and  C20_20 
REMARK    9  A    between atoms: C20_20  and  C21_21 
REMARK   10  A    between atoms: C21_21  and  O1_22 
REMARK   11  A    between atoms: C23_24  and  C25_26 
REMARK   12  A    between atoms: C28_30  and  O3_32 
REMARK   13  A    between atoms: C30_33  and  O4_34 
ROOT
HETATM    1  C15 UNL     1      -1.139   4.379  12.046  1.00  0.00     0.149 C 
HETATM    2  C16 UNL     1      -0.427   5.300  11.054  1.00  0.00     0.054 C 
HETATM    3  C17 UNL     1       0.551   6.181  11.888  1.00  0.00     0.050 C 
HETATM    4  C18 UNL     1       1.967   6.206  11.187  1.00  0.00     0.032 C 
HETATM    5  C22 UNL     1       1.818   6.728   9.747  1.00  0.00    -0.066 C 
HETATM    6  C23 UNL     1       2.425   6.200   8.649  1.00  0.00    -0.021 C 
HETATM    7  C24 UNL     1       2.210   6.662   7.228  1.00  0.00     0.052 C 
HETATM    8  C26 UNL     1       0.800   7.849   9.580  1.00  0.00     0.038 C 
HETATM    9  C27 UNL     1       0.362   8.565  10.854  1.00  0.00     0.042 C 
HETATM   10  C28 UNL     1       0.039   7.664  12.073  1.00  0.00     0.067 C 
HETATM   11  C29 UNL     1      -1.446   7.796  12.437  1.00  0.00     0.047 C 
HETATM   12  C30 UNL     1       0.592   5.346  13.191  1.00  0.00     0.270 C 
HETATM   13  O5  UNL     1      -0.700   4.774  13.348  1.00  0.00    -0.351 OA
ENDROOT
BRANCH   4  14
HETATM   14  C19 UNL     1       3.057   6.977  11.979  1.00  0.00     0.012 C 
BRANCH  14  15
HETATM   15  C20 UNL     1       4.034   7.771  11.108  1.00  0.00     0.027 C 
BRANCH  15  16
HETATM   16  C21 UNL     1       5.375   7.060  10.982  1.00  0.00     0.164 C 
BRANCH  16  17
HETATM   17  O1  UNL     1       5.564   6.208  12.104  1.00  0.00    -0.401 OA
HETATM   18  H32 UNL     1       4.892   5.507  12.056  1.00  0.00     0.209 HD
ENDBRANCH  16  17
ENDBRANCH  15  16
ENDBRANCH  14  15
ENDBRANCH   4  14
BRANCH  10  19
HETATM   19  O3  UNL     1       0.727   8.310  13.164  1.00  0.00    -0.389 OA
HETATM   20  H44 UNL     1       0.702   7.692  13.928  1.00  0.00     0.210 HD
ENDBRANCH  10  19
BRANCH  12  21
HETATM   21  O4  UNL     1       0.882   6.091  14.353  1.00  0.00    -0.370 OA
HETATM   22  H46 UNL     1       0.912   5.426  15.068  1.00  0.00     0.212 HD
ENDBRANCH  12  21
BRANCH   1  23
HETATM   23  C14 UNL     1      -2.634   4.469  12.004  1.00  0.00     0.011 C 
HETATM   24  C12 UNL     1      -3.530   3.464  11.894  1.00  0.00    -0.063 C 
HETATM   25  C13 UNL     1      -3.152   2.013  11.733  1.00  0.00     0.048 C 
BRANCH  24  26
HETATM   26  C11 UNL     1      -4.956   3.802  11.894  1.00  0.00     0.006 C 
HETATM   27  C10 UNL     1      -5.688   4.169  12.961  1.00  0.00     0.001 C 
BRANCH  27  28
HETATM   28  C9  UNL     1      -7.097   4.486  12.862  1.00  0.00     0.002 C 
HETATM   29  C7  UNL     1      -7.704   5.625  13.256  1.00  0.00    -0.084 C 
HETATM   30  C8  UNL     1      -7.020   6.791  13.921  1.00  0.00     0.043 C 
BRANCH  29  31
HETATM   31  C6  UNL     1      -9.206   5.777  13.067  1.00  0.00     0.037 C 
BRANCH  31  32
HETATM   32  C5  UNL     1      -9.851   6.857  13.948  1.00  0.00     0.031 C 
BRANCH  32  33
HETATM   33  C4  UNL     1     -11.358   6.840  13.927  1.00  0.00    -0.024 C 
HETATM   34  C2  UNL     1     -12.189   7.667  13.263  1.00  0.00    -0.091 C 
HETATM   35  C1  UNL     1     -13.683   7.471  13.329  1.00  0.00     0.042 C 
HETATM   36  C3  UNL     1     -11.763   8.839  12.421  1.00  0.00     0.042 C 
ENDBRANCH  32  33
ENDBRANCH  31  32
ENDBRANCH  29  31
ENDBRANCH  27  28
ENDBRANCH  24  26
ENDBRANCH   1  23
BRANCH   6  37
HETATM   37  C25 UNL     1       3.389   5.053   8.721  1.00  0.00     0.265 C 
HETATM   38  O2  UNL     1       3.652   4.348   7.752  1.00  0.00    -0.302 OA
ENDBRANCH   6  37
TORSDOF 13
ENDMDL
