MODEL 1
REMARK minimizedAffinity -6.67292786
REMARK CNNscore 0.595578372
REMARK CNNaffinity 6.96246099
REMARK  20 active torsions:
REMARK  status: ('A' for Active; 'I' for Inactive)
REMARK    1  A    between atoms: C2_2  and  C3_3 
REMARK    2  A    between atoms: C2_2  and  C28_35 
REMARK    3  A    between atoms: C4_4  and  C5_5 
REMARK    4  A    between atoms: C6_6  and  C7_7 
REMARK    5  A    between atoms: C6_6  and  C9_11 
REMARK    6  A    between atoms: C7_7  and  O1_8 
REMARK    7  A    between atoms: O1_8  and  C8_9 
REMARK    8  A    between atoms: C8_9  and  O2_10 
REMARK    9  A    between atoms: C13_15  and  O3_16 
REMARK   10  A    between atoms: C14_17  and  C15_18 
REMARK   11  A    between atoms: C15_18  and  C16_19 
REMARK   12  A    between atoms: C16_19  and  C17_20 
REMARK   13  A    between atoms: C17_20  and  O4_21 
REMARK   14  A    between atoms: C19_23  and  C21_25 
REMARK   15  A    between atoms: C24_29  and  O6_30 
REMARK   16  A    between atoms: C24_29  and  C25_31 
REMARK   17  A    between atoms: C25_31  and  C26_32 
REMARK   18  A    between atoms: C26_32  and  N1_33 
REMARK   19  A    between atoms: C28_35  and  C29_36 
REMARK   20  A    between atoms: C29_36  and  C30_37 
ROOT
HETATM    1  C9  UNL     1       2.804  51.595 -10.037  1.00  0.00     0.046 C 
HETATM    2  C10 UNL     1       2.110  51.201  -8.732  1.00  0.00     0.013 C 
HETATM    3  C11 UNL     1       1.293  52.442  -8.335  1.00  0.00     0.017 C 
HETATM    4  C12 UNL     1       0.990  53.240  -9.658  1.00  0.00     0.025 C 
HETATM    5  C13 UNL     1       1.623  52.308 -10.756  1.00  0.00     0.138 C 
HETATM    6  C14 UNL     1       1.846  54.607  -9.556  1.00  0.00     0.029 C 
HETATM    7  C18 UNL     1       1.279  55.526  -8.459  1.00  0.00    -0.066 C 
HETATM    8  C19 UNL     1       1.983  56.008  -7.405  1.00  0.00    -0.021 C 
HETATM    9  C20 UNL     1       1.402  56.849  -6.297  1.00  0.00     0.052 C 
HETATM   10  C22 UNL     1      -0.194  55.824  -8.649  1.00  0.00     0.038 C 
HETATM   11  C23 UNL     1      -1.020  54.539  -8.721  1.00  0.00     0.043 C 
HETATM   12  C24 UNL     1      -0.549  53.592  -9.853  1.00  0.00     0.070 C 
ENDROOT
BRANCH   5  13
HETATM   13  O3  UNL     1       0.701  51.313 -11.204  1.00  0.00    -0.394 OA
HETATM   14  H17 UNL     1       1.195  50.676 -11.749  1.00  0.00     0.210 HD
ENDBRANCH   5  13
BRANCH   6  15
HETATM   15  C15 UNL     1       2.030  55.389 -10.892  1.00  0.00     0.012 C 
BRANCH  15  16
HETATM   16  C16 UNL     1       3.222  56.360 -10.853  1.00  0.00     0.027 C 
BRANCH  16  17
HETATM   17  C17 UNL     1       4.532  55.683 -11.245  1.00  0.00     0.164 C 
BRANCH  17  18
HETATM   18  O4  UNL     1       5.242  55.231 -10.105  1.00  0.00    -0.401 OA
HETATM   19  H25 UNL     1       5.583  56.016  -9.640  1.00  0.00     0.209 HD
ENDBRANCH  17  18
ENDBRANCH  16  17
ENDBRANCH  15  16
ENDBRANCH   6  15
BRANCH  12  20
HETATM   20  O6  UNL     1      -0.660  54.366 -11.078  1.00  0.00    -0.389 OA
HETATM   21  H34 UNL     1      -1.597  54.595 -11.205  1.00  0.00     0.210 HD
ENDBRANCH  12  20
BRANCH  12  22
HETATM   22  C25 UNL     1      -1.602  52.459 -10.059  1.00  0.00     0.068 C 
BRANCH  22  23
HETATM   23  C26 UNL     1      -3.094  52.701  -9.837  1.00  0.00     0.272 C 
BRANCH  23  24
HETATM   24  N1  UNL     1      -3.736  53.371 -10.972  1.00  0.00     0.079 N 
HETATM   25  C27 UNL     1      -3.511  52.627 -12.207  1.00  0.00     0.306 C 
HETATM   26  H39 UNL     1      -3.344  54.306 -11.074  1.00  0.00     0.315 HD
ENDBRANCH  23  24
ENDBRANCH  22  23
ENDBRANCH  12  22
BRANCH   1  27
HETATM   27  C6  UNL     1       3.556  50.569 -10.893  1.00  0.00    -0.050 C 
HETATM   28  C5  UNL     1       3.689  50.475 -12.234  1.00  0.00     0.005 C 
BRANCH  28  29
HETATM   29  C4  UNL     1       3.169  51.315 -13.290  1.00  0.00     0.001 C 
HETATM   30  C3  UNL     1       3.505  51.152 -14.582  1.00  0.00     0.006 C 
BRANCH  30  31
HETATM   31  C2  UNL     1       3.032  51.952 -15.706  1.00  0.00    -0.067 C 
HETATM   32  C1  UNL     1       3.795  52.958 -16.170  1.00  0.00     0.019 C 
BRANCH  31  33
HETATM   33  C28 UNL     1       1.670  51.689 -16.319  1.00  0.00     0.041 C 
BRANCH  33  34
HETATM   34  C29 UNL     1       1.245  52.768 -17.327  1.00  0.00     0.032 C 
BRANCH  34  35
HETATM   35  C30 UNL     1       0.456  52.169 -18.463  1.00  0.00    -0.024 C 
HETATM   36  C31 UNL     1       0.272  52.655 -19.706  1.00  0.00    -0.091 C 
HETATM   37  C32 UNL     1       0.826  53.950 -20.230  1.00  0.00     0.042 C 
HETATM   38  C33 UNL     1      -0.555  51.893 -20.709  1.00  0.00     0.042 C 
ENDBRANCH  34  35
ENDBRANCH  33  34
ENDBRANCH  31  33
ENDBRANCH  30  31
ENDBRANCH  28  29
BRANCH  27  39
HETATM   39  C7  UNL     1       4.230  49.470 -10.066  1.00  0.00     0.205 C 
BRANCH  39  40
HETATM   40  O1  UNL     1       5.292  50.026  -9.301  1.00  0.00    -0.363 OA
BRANCH  40  41
HETATM   41  C8  UNL     1       6.411  50.399 -10.080  1.00  0.00     0.334 C 
BRANCH  41  42
HETATM   42  O2  UNL     1       6.825  49.344 -10.919  1.00  0.00    -0.377 OA
HETATM   43  H10 UNL     1       7.064  48.628 -10.307  1.00  0.00     0.212 HD
ENDBRANCH  41  42
ENDBRANCH  40  41
ENDBRANCH  39  40
ENDBRANCH  27  39
ENDBRANCH   1  27
BRANCH   8  44
HETATM   44  C21 UNL     1       3.437  55.722  -7.210  1.00  0.00     0.265 C 
HETATM   45  O5  UNL     1       4.341  56.434  -7.617  1.00  0.00    -0.302 OA
ENDBRANCH   8  44
TORSDOF 20
ENDMDL
