MODEL 1
REMARK minimizedAffinity -8.79472446
REMARK  8 active torsions:
REMARK  status: ('A' for Active; 'I' for Inactive)
REMARK    1  A    between atoms: C12_14  and  C13_15 
REMARK    2  A    between atoms: C13_15  and  C15_17 
REMARK    3  A    between atoms: C15_17  and  C16_18 
REMARK    4  A    between atoms: C16_18  and  C17_19 
REMARK    5  A    between atoms: C26_28  and  C27_29 
REMARK    6  A    between atoms: C27_29  and  C28_30 
REMARK    7  A    between atoms: C28_30  and  C29_31 
REMARK    8  A    between atoms: C29_31  and  O4_33 
ROOT
HETATM    1  C1  UNL     1       5.064   7.241  11.068  1.00  0.00     0.025 C 
HETATM    2  C2  UNL     1       4.133   8.150  11.377  1.00  0.00     0.015 C 
HETATM    3  C3  UNL     1       4.475   9.347  12.182  1.00  0.00     0.289 C 
HETATM    4  O1  UNL     1       5.592   9.738  12.467  1.00  0.00    -0.260 OA
HETATM    5  O2  UNL     1       3.311   9.952  12.537  1.00  0.00    -0.311 OA
HETATM    6  C4  UNL     1       2.192   9.116  12.189  1.00  0.00     0.142 C 
HETATM    7  C5  UNL     1       1.735   8.382  13.445  1.00  0.00     0.039 C 
HETATM    8  C6  UNL     1       0.640   7.324  13.238  1.00  0.00     0.006 C 
HETATM    9  C7  UNL     1       0.855   6.443  11.982  1.00  0.00    -0.027 A 
HETATM   10  C8  UNL     1      -0.274   5.419  11.741  1.00  0.00     0.011 C 
HETATM   11  C9  UNL     1      -1.701   5.955  11.921  1.00  0.00     0.011 C 
HETATM   12  C10 UNL     1      -1.858   6.669  13.272  1.00  0.00    -0.032 C 
HETATM   13  C11 UNL     1      -1.634   5.637  14.424  1.00  0.00     0.016 C 
HETATM   14  C12 UNL     1      -3.208   7.410  13.541  1.00  0.00    -0.002 C 
HETATM   15  C21 UNL     1      -2.783   8.503  14.570  1.00  0.00     0.006 C 
HETATM   16  C22 UNL     1      -1.246   8.605  14.549  1.00  0.00     0.011 C 
HETATM   17  C23 UNL     1      -0.826   7.870  13.267  1.00  0.00    -0.032 C 
HETATM   18  C24 UNL     1      -1.041   8.873  12.088  1.00  0.00     0.016 C 
HETATM   19  C25 UNL     1       2.197   5.779  11.780  1.00  0.00     0.022 A 
HETATM   20  C26 UNL     1       1.846   6.937  10.870  1.00  0.00    -0.021 A 
HETATM   21  C31 UNL     1       2.672   8.219  11.061  1.00  0.00     0.063 C 
ENDROOT
BRANCH  14  22
HETATM   22  C13 UNL     1      -4.467   6.617  14.017  1.00  0.00    -0.014 C 
HETATM   23  C14 UNL     1      -4.378   6.225  15.495  1.00  0.00     0.010 C 
BRANCH  22  24
HETATM   24  C15 UNL     1      -4.656   5.347  13.137  1.00  0.00     0.008 C 
BRANCH  24  25
HETATM   25  C16 UNL     1      -6.096   4.850  12.943  1.00  0.00     0.028 C 
BRANCH  25  26
HETATM   26  C17 UNL     1      -6.190   3.413  12.508  1.00  0.00    -0.025 C 
HETATM   27  C18 UNL     1      -5.404   2.773  11.619  1.00  0.00    -0.091 C 
HETATM   28  C19 UNL     1      -4.283   3.415  10.849  1.00  0.00     0.042 C 
HETATM   29  C20 UNL     1      -5.623   1.315  11.310  1.00  0.00     0.042 C 
ENDBRANCH  25  26
ENDBRANCH  24  25
ENDBRANCH  22  24
ENDBRANCH  14  22
BRANCH  20  30
HETATM   30  C27 UNL     1       1.423   6.721   9.412  1.00  0.00     0.021 C 
BRANCH  30  31
HETATM   31  C28 UNL     1       2.565   6.740   8.401  1.00  0.00     0.112 C 
BRANCH  31  32
HETATM   32  C29 UNL     1       3.164   5.375   8.182  1.00  0.00     0.258 C 
HETATM   33  O3  UNL     1       3.865   4.791   8.996  1.00  0.00    -0.265 OA
BRANCH  32  34
HETATM   34  O4  UNL     1       2.823   4.892   6.955  1.00  0.00    -0.326 OA
HETATM   35  C30 UNL     1       3.719   3.900   6.453  1.00  0.00     0.213 C 
ENDBRANCH  32  34
ENDBRANCH  31  32
ENDBRANCH  30  31
ENDBRANCH  20  30
TORSDOF 8
ENDMDL
