MODEL 1
REMARK minimizedAffinity -8.689147
REMARK CNNscore 0.535683692
REMARK CNNaffinity 6.8913703
REMARK  10 active torsions:
REMARK  status: ('A' for Active; 'I' for Inactive)
REMARK    1  A    between atoms: C3_3  and  O1_4 
REMARK    2  A    between atoms: N1_14  and  O2_16 
REMARK    3  A    between atoms: O2_16  and  C13_17 
REMARK    4  A    between atoms: C13_17  and  C14_18 
REMARK       I    between atoms: C14_18  and  N2_20 
REMARK    5  A    between atoms: N2_20  and  C15_21 
REMARK    6  A    between atoms: C15_21  and  C16_22 
REMARK       I    between atoms: C16_22  and  N3_24 
REMARK    7  A    between atoms: N3_24  and  C17_25 
REMARK    8  A    between atoms: C17_25  and  C18_26 
REMARK    9  A    between atoms: C17_25  and  C19_29 
REMARK   10  A    between atoms: C18_26  and  O6_28 
ROOT
HETATM    1  C1  UNL     1      -4.278  52.093 -23.991  1.00  0.00     0.015 C 
HETATM    2  C2  UNL     1      -4.904  51.119 -23.670  1.00  0.00    -0.078 C 
HETATM    3  C3  UNL     1      -5.724  49.945 -23.307  1.00  0.00     0.128 C 
HETATM    4  C4  UNL     1      -6.718  50.319 -22.203  1.00  0.00     0.052 C 
HETATM    5  C5  UNL     1      -5.896  50.210 -20.929  1.00  0.00     0.010 C 
HETATM    6  C6  UNL     1      -4.977  48.987 -21.134  1.00  0.00     0.002 C 
HETATM    7  C7  UNL     1      -3.608  49.179 -20.449  1.00  0.00    -0.004 C 
HETATM    8  C8  UNL     1      -2.956  47.834 -20.053  1.00  0.00     0.010 C 
HETATM    9  C9  UNL     1      -1.438  47.917 -19.846  1.00  0.00     0.035 C 
HETATM   10  C10 UNL     1      -1.005  49.310 -19.465  1.00  0.00    -0.069 C 
HETATM   11  C11 UNL     1      -0.410  49.545 -18.284  1.00  0.00     0.030 C 
HETATM   12  C12 UNL     1      -0.033  50.920 -17.864  1.00  0.00     0.032 C 
HETATM   13  N1  UNL     1       0.748  51.045 -16.827  1.00  0.00    -0.271 N 
ATOM     14  H1  UNL     1       1.083  50.263 -16.265  1.00  0.00     0.194 HD
HETATM   15  C22 UNL     1      -0.550  52.098 -18.671  1.00  0.00     0.060 C 
HETATM   16  C23 UNL     1      -1.663  51.704 -19.637  1.00  0.00     0.020 C 
HETATM   17  C24 UNL     1      -1.353  50.418 -20.460  1.00  0.00    -0.016 C 
HETATM   18  C25 UNL     1      -0.137  50.697 -21.373  1.00  0.00     0.020 C 
HETATM   19  C26 UNL     1      -2.647  50.042 -21.292  1.00  0.00     0.002 C 
HETATM   20  C27 UNL     1      -2.384  49.389 -22.667  1.00  0.00     0.007 C 
HETATM   21  C28 UNL     1      -3.516  48.531 -23.240  1.00  0.00     0.014 C 
HETATM   22  C29 UNL     1      -4.938  48.741 -22.678  1.00  0.00     0.003 C 
HETATM   23  C30 UNL     1      -5.708  47.417 -22.963  1.00  0.00     0.020 C 
ENDROOT
BRANCH   3  24
HETATM   24  O1  UNL     1      -6.441  49.552 -24.472  1.00  0.00    -0.377 OA
HETATM   25  H2  UNL     1      -6.826  50.359 -24.853  1.00  0.00     0.211 HD
ENDBRANCH   3  24
BRANCH  13  26
HETATM   26  O2  UNL     1       1.071  52.389 -16.582  1.00  0.00    -0.271 OA
BRANCH  26  27
HETATM   27  C13 UNL     1       2.487  52.529 -16.604  1.00  0.00     0.303 C 
BRANCH  27  28
HETATM   28  C14 UNL     1       3.106  52.033 -15.301  1.00  0.00     0.244 C 
HETATM   29  O3  UNL     1       4.216  51.506 -15.256  1.00  0.00    -0.271 OA
HETATM   30  N2  UNL     1       2.355  52.288 -14.173  1.00  0.00    -0.350 N 
HETATM   31  H16 UNL     1       1.357  52.405 -14.328  1.00  0.00     0.163 HD
BRANCH  30  32
HETATM   32  C15 UNL     1       2.770  51.786 -12.879  1.00  0.00     0.225 C 
BRANCH  32  33
HETATM   33  C16 UNL     1       2.280  52.710 -11.758  1.00  0.00     0.236 C 
HETATM   34  O4  UNL     1       1.087  52.882 -11.518  1.00  0.00    -0.272 OA
HETATM   35  N3  UNL     1       3.292  53.374 -11.100  1.00  0.00    -0.345 N 
HETATM   36  H19 UNL     1       4.216  52.950 -11.125  1.00  0.00     0.163 HD
BRANCH  35  37
HETATM   37  C17 UNL     1       3.038  54.195  -9.910  1.00  0.00     0.185 C 
BRANCH  37  38
HETATM   38  C18 UNL     1       3.370  53.390  -8.643  1.00  0.00     0.163 C 
HETATM   39  O5  UNL     1       3.036  53.659  -7.500  1.00  0.00    -0.648 OA
BRANCH  38  40
HETATM   40  O6  UNL     1       4.146  52.305  -8.885  1.00  0.00    -0.775 OA
HETATM   41  H21 UNL     1       4.263  51.896  -7.998  1.00  0.00     0.167 HD
ENDBRANCH  38  40
ENDBRANCH  37  38
BRANCH  37  42
HETATM   42  C19 UNL     1       3.835  55.519  -9.924  1.00  0.00     0.010 C 
HETATM   43  C20 UNL     1       5.352  55.305  -9.932  1.00  0.00     0.012 C 
HETATM   44  C21 UNL     1       3.427  56.409 -11.101  1.00  0.00     0.012 C 
ENDBRANCH  37  42
ENDBRANCH  35  37
ENDBRANCH  32  33
ENDBRANCH  30  32
ENDBRANCH  27  28
ENDBRANCH  26  27
ENDBRANCH  13  26
TORSDOF 10
ENDMDL
