MODEL 1
REMARK minimizedAffinity -7.81017685
REMARK CNNscore 0.800390184
REMARK CNNaffinity 6.68852568
REMARK  13 active torsions:
REMARK  status: ('A' for Active; 'I' for Inactive)
REMARK    1  A    between atoms: C2_2  and  C3_3 
REMARK    2  A    between atoms: C2_2  and  C4_5 
REMARK    3  A    between atoms: C3_3  and  O1_4 
REMARK    4  A    between atoms: C4_5  and  C5_6 
REMARK    5  A    between atoms: C5_6  and  C6_7 
REMARK    6  A    between atoms: C6_7  and  O2_8 
REMARK    7  A    between atoms: C6_7  and  C7_9 
REMARK    8  A    between atoms: C7_9  and  C9_11 
REMARK    9  A    between atoms: C10_12  and  O3_13 
REMARK   10  A    between atoms: O3_13  and  C11_14 
REMARK   11  A    between atoms: C13_17  and  O5_18 
REMARK   12  A    between atoms: C14_19  and  O6_20 
REMARK   13  A    between atoms: C15_21  and  O7_22 
ROOT
HETATM    1  C9  UNL     1       4.933  52.877  -9.889  1.00  0.00     0.029 C 
HETATM    2  C10 UNL     1       5.471  52.037  -8.652  1.00  0.00     0.130 C 
HETATM    3  C16 UNL     1       5.475  52.983  -7.429  1.00  0.00     0.038 C 
HETATM    4  C17 UNL     1       4.693  54.192  -7.914  1.00  0.00     0.001 C 
HETATM    5  C18 UNL     1       4.755  55.495  -7.120  1.00  0.00    -0.004 C 
HETATM    6  C19 UNL     1       4.624  55.283  -5.610  1.00  0.00     0.010 C 
HETATM    7  C20 UNL     1       4.213  56.567  -4.910  1.00  0.00     0.035 C 
HETATM    8  C21 UNL     1       2.805  56.846  -5.342  1.00  0.00    -0.068 C 
HETATM    9  C22 UNL     1       1.803  56.759  -4.448  1.00  0.00     0.053 C 
HETATM   10  C23 UNL     1       0.384  56.877  -4.854  1.00  0.00     0.149 C 
HETATM   11  O8  UNL     1      -0.485  56.937  -3.987  1.00  0.00    -0.293 OA
HETATM   12  C24 UNL     1       0.052  56.939  -6.326  1.00  0.00     0.084 C 
HETATM   13  C25 UNL     1       1.209  56.468  -7.208  1.00  0.00     0.022 C 
HETATM   14  C26 UNL     1       2.583  57.091  -6.833  1.00  0.00    -0.016 C 
HETATM   15  C27 UNL     1       2.513  58.628  -7.045  1.00  0.00     0.020 C 
HETATM   16  C28 UNL     1       3.772  56.549  -7.744  1.00  0.00     0.002 C 
HETATM   17  C29 UNL     1       3.312  56.143  -9.180  1.00  0.00     0.007 C 
HETATM   18  C30 UNL     1       4.452  55.576 -10.030  1.00  0.00     0.010 C 
HETATM   19  C31 UNL     1       5.153  54.359  -9.383  1.00  0.00    -0.034 C 
HETATM   20  C32 UNL     1       6.678  54.686  -9.529  1.00  0.00     0.016 C 
ENDROOT
BRANCH   2  21
HETATM   21  O3  UNL     1       6.818  51.630  -8.892  1.00  0.00    -0.353 OA
BRANCH  21  22
HETATM   22  C11 UNL     1       7.010  50.216  -8.870  1.00  0.00     0.291 C 
HETATM   23  O4  UNL     1       7.938  49.912  -7.819  1.00  0.00    -0.356 OA
HETATM   24  C12 UNL     1       8.256  48.521  -7.735  1.00  0.00     0.205 C 
HETATM   25  C13 UNL     1       8.959  48.079  -9.015  1.00  0.00     0.173 C 
HETATM   26  C14 UNL     1       8.045  48.339 -10.213  1.00  0.00     0.182 C 
HETATM   27  C15 UNL     1       7.561  49.793 -10.248  1.00  0.00     0.204 C 
BRANCH  25  28
HETATM   28  O5  UNL     1      10.178  48.818  -9.210  1.00  0.00    -0.391 OA
HETATM   29  H24 UNL     1      10.118  49.628  -8.659  1.00  0.00     0.210 HD
ENDBRANCH  25  28
BRANCH  26  30
HETATM   30  O6  UNL     1       8.740  48.056 -11.438  1.00  0.00    -0.390 OA
HETATM   31  H26 UNL     1       9.678  48.294 -11.271  1.00  0.00     0.210 HD
ENDBRANCH  26  30
BRANCH  27  32
HETATM   32  O7  UNL     1       6.557  49.902 -11.277  1.00  0.00    -0.388 OA
HETATM   33  H28 UNL     1       6.975  49.521 -12.073  1.00  0.00     0.210 HD
ENDBRANCH  27  32
ENDBRANCH  21  22
ENDBRANCH   2  21
BRANCH   1  34
HETATM   34  C7  UNL     1       3.487  52.380 -10.281  1.00  0.00     0.017 C 
HETATM   35  C8  UNL     1       3.385  50.839 -10.121  1.00  0.00     0.013 C 
BRANCH  34  36
HETATM   36  C6  UNL     1       2.985  52.765 -11.701  1.00  0.00     0.122 C 
BRANCH  36  37
HETATM   37  C5  UNL     1       2.579  51.574 -12.585  1.00  0.00     0.032 C 
BRANCH  37  38
HETATM   38  C4  UNL     1       3.589  51.330 -13.717  1.00  0.00     0.009 C 
BRANCH  38  39
HETATM   39  C2  UNL     1       2.978  51.529 -15.119  1.00  0.00     0.005 C 
HETATM   40  C1  UNL     1       3.855  52.428 -15.997  1.00  0.00     0.012 C 
BRANCH  39  41
HETATM   41  C3  UNL     1       1.556  52.102 -15.023  1.00  0.00     0.168 C 
BRANCH  41  42
HETATM   42  O1  UNL     1       1.362  53.195 -15.907  1.00  0.00    -0.400 OA
HETATM   43  H7  UNL     1       1.899  53.939 -15.589  1.00  0.00     0.209 HD
ENDBRANCH  41  42
ENDBRANCH  39  41
ENDBRANCH  38  39
ENDBRANCH  37  38
ENDBRANCH  36  37
BRANCH  36  44
HETATM   44  O2  UNL     1       1.892  53.687 -11.597  1.00  0.00    -0.395 OA
HETATM   45  H13 UNL     1       1.068  53.182 -11.489  1.00  0.00     0.210 HD
ENDBRANCH  36  44
ENDBRANCH  34  36
ENDBRANCH   1  34
TORSDOF 13
ENDMDL
