MODEL 1
REMARK minimizedAffinity -9.64392948
REMARK  7 active torsions:
REMARK  status: ('A' for Active; 'I' for Inactive)
REMARK    1  A    between atoms: C2_2  and  C30_32 
REMARK    2  A    between atoms: C3_3  and  C4_4 
REMARK    3  A    between atoms: C4_4  and  O1_5 
REMARK    4  A    between atoms: C4_4  and  C5_6 
REMARK    5  A    between atoms: C5_6  and  C6_7 
REMARK    6  A    between atoms: C6_7  and  C8_9 
REMARK    7  A    between atoms: C30_32  and  O4_34 
ROOT
HETATM    1  C8  UNL     1      -0.848  50.558 -22.487  1.00  0.00    -0.002 C 
HETATM    2  C9  UNL     1      -0.519  50.271 -20.990  1.00  0.00     0.007 C 
HETATM    3  C10 UNL     1      -1.770  49.641 -20.352  1.00  0.00     0.015 C 
HETATM    4  C11 UNL     1      -2.673  49.269 -21.543  1.00  0.00    -0.013 C 
HETATM    5  C12 UNL     1      -2.163  47.886 -22.055  1.00  0.00     0.021 C 
HETATM    6  C13 UNL     1      -4.164  49.102 -21.289  1.00  0.00    -0.070 C 
HETATM    7  C14 UNL     1      -4.690  48.832 -20.080  1.00  0.00    -0.022 C 
HETATM    8  C15 UNL     1      -6.157  48.579 -19.902  1.00  0.00     0.034 C 
HETATM    9  C16 UNL     1      -6.658  47.756 -21.098  1.00  0.00     0.013 C 
HETATM   10  C17 UNL     1      -8.063  47.104 -20.905  1.00  0.00     0.018 C 
HETATM   11  C18 UNL     1      -7.937  45.821 -20.055  1.00  0.00     0.023 C 
HETATM   12  C19 UNL     1      -9.080  48.025 -20.205  1.00  0.00     0.023 C 
HETATM   13  C20 UNL     1      -8.613  46.664 -22.269  1.00  0.00     0.135 C 
HETATM   14  O2  UNL     1      -9.817  46.481 -22.458  1.00  0.00    -0.297 OA
HETATM   15  C21 UNL     1      -7.614  46.354 -23.365  1.00  0.00     0.080 C 
HETATM   16  C22 UNL     1      -6.521  47.411 -23.555  1.00  0.00     0.017 C 
HETATM   17  C23 UNL     1      -6.461  48.511 -22.461  1.00  0.00    -0.031 C 
HETATM   18  C24 UNL     1      -7.582  49.544 -22.759  1.00  0.00     0.016 C 
HETATM   19  C25 UNL     1      -5.099  49.347 -22.476  1.00  0.00     0.024 C 
HETATM   20  C26 UNL     1      -4.373  49.387 -23.843  1.00  0.00     0.010 C 
HETATM   21  C27 UNL     1      -3.052  50.190 -23.887  1.00  0.00     0.011 C 
HETATM   22  C28 UNL     1      -2.413  50.480 -22.511  1.00  0.00    -0.029 C 
HETATM   23  C29 UNL     1      -2.981  51.833 -21.974  1.00  0.00     0.016 C 
ENDROOT
BRANCH   1  24
HETATM   24  C6  UNL     1      -0.119  51.835 -23.014  1.00  0.00    -0.011 C 
HETATM   25  C7  UNL     1       0.474  52.666 -21.872  1.00  0.00     0.010 C 
BRANCH  24  26
HETATM   26  C5  UNL     1      -1.102  52.706 -23.853  1.00  0.00     0.040 C 
BRANCH  26  27
HETATM   27  C4  UNL     1      -0.597  53.097 -25.253  1.00  0.00     0.142 C 
BRANCH  27  28
HETATM   28  C3  UNL     1       0.738  52.469 -25.539  1.00  0.00     0.018 C 
HETATM   29  C2  UNL     1       1.234  52.075 -26.731  1.00  0.00     0.010 C 
HETATM   30  C1  UNL     1       0.553  52.187 -28.061  1.00  0.00     0.055 C 
BRANCH  29  31
HETATM   31  C30 UNL     1       2.595  51.477 -26.705  1.00  0.00     0.171 C 
HETATM   32  O3  UNL     1       2.964  50.536 -26.025  1.00  0.00    -0.646 OA
BRANCH  31  33
HETATM   33  O4  UNL     1       3.438  52.087 -27.552  1.00  0.00    -0.773 OA
HETATM   34  H46 UNL     1       4.278  51.600 -27.430  1.00  0.00     0.167 HD
ENDBRANCH  31  33
ENDBRANCH  29  31
ENDBRANCH  27  28
BRANCH  27  35
HETATM   35  O1  UNL     1      -0.434  54.508 -25.337  1.00  0.00    -0.392 OA
HETATM   36  H6  UNL     1       0.231  54.771 -24.678  1.00  0.00     0.210 HD
ENDBRANCH  27  35
ENDBRANCH  26  27
ENDBRANCH  24  26
ENDBRANCH   1  24
TORSDOF 7
ENDMDL
