MODEL 1
REMARK minimizedAffinity -9.72910309
REMARK  6 active torsions:
REMARK  status: ('A' for Active; 'I' for Inactive)
REMARK    1  A    between atoms: C3_3  and  C4_4 
REMARK    2  A    between atoms: C4_4  and  O1_5 
REMARK    3  A    between atoms: C6_9  and  C7_10 
REMARK    4  A    between atoms: C7_10  and  C9_12 
REMARK    5  A    between atoms: C15_18  and  O4_19 
REMARK    6  A    between atoms: C16_20  and  C17_21 
ROOT
HETATM    1  C9  UNL     1      -0.878  50.629 -23.039  1.00  0.00     0.000 C 
HETATM    2  C10 UNL     1      -0.325  51.380 -21.789  1.00  0.00     0.006 C 
HETATM    3  C11 UNL     1      -1.078  50.856 -20.560  1.00  0.00     0.006 C 
HETATM    4  C12 UNL     1      -1.856  49.667 -21.093  1.00  0.00    -0.001 C 
HETATM    5  C13 UNL     1      -3.020  49.124 -20.249  1.00  0.00    -0.002 C 
HETATM    6  C14 UNL     1      -2.557  48.767 -18.829  1.00  0.00     0.038 C 
HETATM    7  C15 UNL     1      -3.689  48.174 -17.993  1.00  0.00     0.135 C 
HETATM    8  C16 UNL     1      -4.381  46.965 -18.651  1.00  0.00     0.053 C 
HETATM    9  C18 UNL     1      -3.462  45.725 -18.705  1.00  0.00     0.028 C 
HETATM   10  C19 UNL     1      -4.087  44.801 -19.746  1.00  0.00     0.080 C 
HETATM   11  C20 UNL     1      -4.865  45.753 -20.622  1.00  0.00     0.137 C 
HETATM   12  O6  UNL     1      -5.502  45.378 -21.599  1.00  0.00    -0.297 OA
HETATM   13  C21 UNL     1      -4.772  47.206 -20.149  1.00  0.00     0.037 C 
HETATM   14  C22 UNL     1      -6.114  47.929 -20.328  1.00  0.00     0.025 C 
HETATM   15  C23 UNL     1      -3.605  47.877 -20.962  1.00  0.00     0.007 C 
HETATM   16  C24 UNL     1      -3.964  48.197 -22.435  1.00  0.00     0.007 C 
HETATM   17  C25 UNL     1      -2.804  48.835 -23.221  1.00  0.00     0.010 C 
HETATM   18  C26 UNL     1      -2.262  50.102 -22.528  1.00  0.00    -0.036 C 
HETATM   19  C27 UNL     1      -3.323  51.229 -22.551  1.00  0.00     0.016 C 
ENDROOT
BRANCH   1  20
HETATM   20  C7  UNL     1      -0.792  51.492 -24.347  1.00  0.00     0.016 C 
HETATM   21  C8  UNL     1      -1.188  50.686 -25.590  1.00  0.00     0.013 C 
BRANCH  20  22
HETATM   22  C6  UNL     1       0.650  52.094 -24.532  1.00  0.00     0.140 C 
HETATM   23  O3  UNL     1       0.619  53.537 -24.466  1.00  0.00    -0.311 OA
HETATM   24  C5  UNL     1       0.275  54.278 -25.552  1.00  0.00     0.292 C 
HETATM   25  C3  UNL     1       0.163  53.560 -26.856  1.00  0.00     0.042 C 
HETATM   26  O2  UNL     1       0.099  55.486 -25.459  1.00  0.00    -0.260 OA
HETATM   27  C2  UNL     1       0.759  52.357 -27.000  1.00  0.00    -0.067 C 
HETATM   28  C1  UNL     1       0.833  51.563 -28.272  1.00  0.00     0.044 C 
HETATM   29  C28 UNL     1       1.416  51.719 -25.804  1.00  0.00     0.067 C 
BRANCH  25  30
HETATM   30  C4  UNL     1      -0.546  54.319 -27.940  1.00  0.00     0.209 C 
BRANCH  30  31
HETATM   31  O1  UNL     1      -1.881  53.838 -28.056  1.00  0.00    -0.396 OA
HETATM   32  H6  UNL     1      -1.839  52.924 -28.382  1.00  0.00     0.209 HD
ENDBRANCH  30  31
ENDBRANCH  25  30
ENDBRANCH  20  22
ENDBRANCH   1  20
BRANCH   7  33
HETATM   33  O4  UNL     1      -4.635  49.228 -17.782  1.00  0.00    -0.394 OA
HETATM   34  H22 UNL     1      -5.194  48.951 -17.026  1.00  0.00     0.210 HD
ENDBRANCH   7  33
BRANCH   8  35
HETATM   35  C17 UNL     1      -5.585  46.569 -17.778  1.00  0.00     0.244 C 
HETATM   36  O5  UNL     1      -6.499  47.336 -17.484  1.00  0.00    -0.306 OA
ENDBRANCH   8  35
TORSDOF 6
ENDMDL
