MODEL 1
REMARK minimizedAffinity -7.79991865
REMARK  5 active torsions:
REMARK  status: ('A' for Active; 'I' for Inactive)
REMARK    1  A    between atoms: O1_2  and  C2_3 
REMARK    2  A    between atoms: C2_3  and  C3_4 
REMARK    3  A    between atoms: C3_4  and  C4_5 
REMARK    4  A    between atoms: C7_8  and  C8_9 
REMARK    5  A    between atoms: C12_15  and  N2_16 
ROOT
HETATM    1  C8  UNL     1      -6.668   5.103  13.223  1.00  0.00     0.092 A 
HETATM    2  C9  UNL     1      -6.342   3.804  12.862  1.00  0.00     0.036 A 
HETATM    3  C10 UNL     1      -7.217   2.613  12.752  1.00  0.00     0.070 C 
HETATM    4  N1  UNL     1      -5.001   3.687  12.595  1.00  0.00    -0.341 N 
ATOM      5  H1  UNL     1      -4.505   2.845  12.304  1.00  0.00     0.167 HD
HETATM    6  C11 UNL     1      -4.482   4.887  12.792  1.00  0.00     0.154 A 
HETATM    7  C12 UNL     1      -3.127   5.365  12.657  1.00  0.00     0.078 A 
HETATM    8  C17 UNL     1      -2.939   6.676  12.905  1.00  0.00     0.052 A 
HETATM    9  C18 UNL     1      -4.088   7.514  13.296  1.00  0.00     0.110 A 
HETATM   10  N3  UNL     1      -5.309   7.123  13.438  1.00  0.00    -0.303 N 
ATOM     11  H3  UNL     1      -6.072   7.739  13.716  1.00  0.00     0.186 HD
HETATM   12  N4  UNL     1      -5.467   5.790  13.173  1.00  0.00    -0.235 N 
ENDROOT
BRANCH   1  13
HETATM   13  C7  UNL     1      -7.955   5.702  13.572  1.00  0.00     0.010 A 
HETATM   14  C6  UNL     1      -8.914   6.005  12.606  1.00  0.00     0.017 A 
HETATM   15  C5  UNL     1     -10.121   6.597  12.981  1.00  0.00     0.026 A 
HETATM   16  C4  UNL     1     -10.344   6.890  14.324  1.00  0.00     0.011 A 
HETATM   17  N5  UNL     1      -9.439   6.588  15.284  1.00  0.00    -0.368 N 
HETATM   18  C19 UNL     1      -8.276   6.012  14.888  1.00  0.00     0.102 A 
ATOM     19  H5  UNL     1      -9.625   6.785  16.268  1.00  0.00     0.165 HD
BRANCH  16  20
HETATM   20  C3  UNL     1     -11.643   7.512  14.781  1.00  0.00     0.083 C 
BRANCH  20  21
HETATM   21  C2  UNL     1     -12.880   6.661  14.493  1.00  0.00     0.173 C 
BRANCH  21  22
HETATM   22  O1  UNL     1     -13.402   6.965  13.199  1.00  0.00    -0.396 OA
HETATM   23  C1  UNL     1     -13.719   8.342  13.064  1.00  0.00     0.201 C 
ENDBRANCH  21  22
ENDBRANCH  20  21
ENDBRANCH  16  20
ENDBRANCH   1  13
BRANCH   7  24
HETATM   24  N2  UNL     1      -2.060   4.515  12.296  1.00  0.00    -0.374 N 
HETATM   25  C13 UNL     1      -2.168   3.544  11.179  1.00  0.00     0.149 C 
HETATM   26  C14 UNL     1      -1.136   2.416  11.340  1.00  0.00     0.187 C 
HETATM   27  O2  UNL     1       0.227   2.863  11.372  1.00  0.00    -0.388 OA
HETATM   28  C15 UNL     1       0.362   4.212  11.835  1.00  0.00     0.187 C 
HETATM   29  C16 UNL     1      -0.701   4.613  12.870  1.00  0.00     0.149 C 
ENDBRANCH   7  24
TORSDOF 5
ENDMDL
