MODEL 1
REMARK minimizedAffinity -9.51881409
REMARK  7 active torsions:
REMARK  status: ('A' for Active; 'I' for Inactive)
REMARK    1  A    between atoms: C2_2  and  C3_3 
REMARK    2  A    between atoms: C2_2  and  C4_5 
REMARK    3  A    between atoms: C3_3  and  O1_4 
REMARK    4  A    between atoms: C4_5  and  C5_7 
REMARK    5  A    between atoms: C5_7  and  C6_8 
REMARK    6  A    between atoms: C6_8  and  C7_9 
REMARK    7  A    between atoms: C7_9  and  C9_11 
ROOT
HETATM    1  C9  UNL     1      -3.461  50.660 -24.970  1.00  0.00    -0.002 C 
HETATM    2  C10 UNL     1      -4.978  50.491 -24.667  1.00  0.00     0.007 C 
HETATM    3  C11 UNL     1      -5.141  50.396 -23.139  1.00  0.00     0.015 C 
HETATM    4  C12 UNL     1      -3.787  50.844 -22.562  1.00  0.00    -0.005 C 
HETATM    5  C13 UNL     1      -3.806  52.404 -22.515  1.00  0.00     0.021 C 
HETATM    6  C14 UNL     1      -3.373  50.417 -21.159  1.00  0.00    -0.000 C 
HETATM    7  C15 UNL     1      -2.065  50.268 -20.823  1.00  0.00    -0.060 C 
HETATM    8  C16 UNL     1      -0.968  50.474 -21.880  1.00  0.00     0.036 C 
HETATM    9  C17 UNL     1      -1.405  50.764 -23.331  1.00  0.00     0.015 C 
HETATM   10  C18 UNL     1      -2.805  50.215 -23.628  1.00  0.00    -0.028 C 
HETATM   11  C19 UNL     1      -2.756  48.655 -23.571  1.00  0.00     0.016 C 
HETATM   12  C20 UNL     1      -1.583  49.860 -19.402  1.00  0.00    -0.014 C 
HETATM   13  C21 UNL     1      -1.182  48.371 -19.464  1.00  0.00     0.020 C 
HETATM   14  C22 UNL     1      -0.370  50.721 -18.977  1.00  0.00     0.021 C 
HETATM   15  C23 UNL     1       0.073  50.585 -17.526  1.00  0.00     0.080 C 
HETATM   16  C24 UNL     1      -0.826  49.766 -16.632  1.00  0.00     0.135 C 
HETATM   17  O3  UNL     1      -0.330  49.179 -15.666  1.00  0.00    -0.297 OA
HETATM   18  C25 UNL     1      -2.340  49.772 -16.872  1.00  0.00     0.018 C 
HETATM   19  C26 UNL     1      -2.898  48.394 -16.447  1.00  0.00     0.023 C 
HETATM   20  C27 UNL     1      -2.929  50.829 -15.915  1.00  0.00     0.023 C 
HETATM   21  C28 UNL     1      -2.698  50.153 -18.350  1.00  0.00     0.020 C 
HETATM   22  C29 UNL     1      -4.044  49.593 -18.813  1.00  0.00     0.090 C 
HETATM   23  C30 UNL     1      -4.439  50.202 -20.132  1.00  0.00     0.157 C 
HETATM   24  O4  UNL     1      -5.615  50.483 -20.356  1.00  0.00    -0.293 OA
ENDROOT
BRANCH   1  25
HETATM   25  C7  UNL     1      -3.058  49.972 -26.313  1.00  0.00    -0.013 C 
HETATM   26  C8  UNL     1      -3.419  48.484 -26.331  1.00  0.00     0.010 C 
BRANCH  25  27
HETATM   27  C6  UNL     1      -1.538  50.163 -26.575  1.00  0.00     0.012 C 
BRANCH  27  28
HETATM   28  C5  UNL     1      -1.191  51.447 -27.342  1.00  0.00     0.084 C 
BRANCH  28  29
HETATM   29  C4  UNL     1       0.311  51.646 -27.497  1.00  0.00     0.157 C 
HETATM   30  O2  UNL     1       0.870  51.601 -28.595  1.00  0.00    -0.293 OA
BRANCH  29  31
HETATM   31  C2  UNL     1       1.145  51.921 -26.276  1.00  0.00     0.002 C 
HETATM   32  C1  UNL     1       0.763  52.791 -25.326  1.00  0.00     0.025 C 
BRANCH  31  33
HETATM   33  C3  UNL     1       2.427  51.141 -26.186  1.00  0.00     0.205 C 
BRANCH  33  34
HETATM   34  O1  UNL     1       3.276  51.464 -27.278  1.00  0.00    -0.396 OA
HETATM   35  H5  UNL     1       2.810  51.142 -28.077  1.00  0.00     0.209 HD
ENDBRANCH  33  34
ENDBRANCH  31  33
ENDBRANCH  29  31
ENDBRANCH  28  29
ENDBRANCH  27  28
ENDBRANCH  25  27
ENDBRANCH   1  25
TORSDOF 7
ENDMDL
