MODEL 1
REMARK minimizedAffinity -7.4140954
REMARK CNNscore 0.81885767
REMARK CNNaffinity 6.51218224
REMARK  6 active torsions:
REMARK  status: ('A' for Active; 'I' for Inactive)
REMARK    1  A    between atoms: C4_4  and  C5_5 
REMARK    2  A    between atoms: C5_5  and  O1_6 
REMARK    3  A    between atoms: C5_5  and  C6_7 
REMARK    4  A    between atoms: C6_7  and  O2_10 
REMARK    5  A    between atoms: C29_33  and  O5_34 
REMARK    6  A    between atoms: C30_35  and  O6_36 
ROOT
HETATM    1  C1  UNL     1      -3.689  11.859  18.825  1.00  0.00     0.013 C 
HETATM    2  C2  UNL     1      -3.141  12.481  17.544  1.00  0.00     0.024 C 
HETATM    3  C3  UNL     1      -3.859  11.883  16.287  1.00  0.00     0.042 C 
HETATM    4  C4  UNL     1      -3.261  10.580  15.682  1.00  0.00     0.154 C 
HETATM    5  O3  UNL     1      -1.791  10.527  15.728  1.00  0.00    -0.375 OA
HETATM    6  C9  UNL     1      -1.303  10.885  17.008  1.00  0.00     0.160 C 
HETATM    7  C10 UNL     1       0.215  10.786  17.243  1.00  0.00     0.048 C 
HETATM    8  C11 UNL     1       0.370  11.578  18.581  1.00  0.00     0.000 C 
HETATM    9  C12 UNL     1      -0.329  10.709  19.696  1.00  0.00     0.019 C 
HETATM   10  C13 UNL     1       1.846  11.983  19.075  1.00  0.00    -0.029 C 
HETATM   11  C14 UNL     1       2.695  12.610  17.932  1.00  0.00     0.016 C 
HETATM   12  C15 UNL     1       2.612  10.738  19.597  1.00  0.00     0.011 C 
HETATM   13  C16 UNL     1       3.973  11.070  20.207  1.00  0.00     0.007 C 
HETATM   14  C17 UNL     1       3.949  12.131  21.336  1.00  0.00     0.009 C 
HETATM   15  C18 UNL     1       5.424  12.503  21.805  1.00  0.00     0.017 C 
HETATM   16  C19 UNL     1       6.537  12.242  20.767  1.00  0.00     0.023 C 
HETATM   17  C20 UNL     1       5.750  11.662  23.059  1.00  0.00     0.023 C 
HETATM   18  C21 UNL     1       5.575  13.990  22.155  1.00  0.00     0.135 C 
HETATM   19  O4  UNL     1       6.251  14.367  23.118  1.00  0.00    -0.297 OA
HETATM   20  C22 UNL     1       4.974  15.017  21.218  1.00  0.00     0.080 C 
HETATM   21  C23 UNL     1       3.842  14.463  20.358  1.00  0.00     0.017 C 
HETATM   22  C24 UNL     1       3.016  13.373  21.072  1.00  0.00    -0.035 C 
HETATM   23  C25 UNL     1       2.553  13.936  22.464  1.00  0.00     0.016 C 
HETATM   24  C26 UNL     1       1.687  12.961  20.312  1.00  0.00     0.003 C 
HETATM   25  C27 UNL     1       0.684  14.135  20.053  1.00  0.00     0.009 C 
HETATM   26  C28 UNL     1      -0.695  13.697  19.473  1.00  0.00     0.042 C 
HETATM   27  C29 UNL     1      -0.481  12.853  18.230  1.00  0.00     0.100 C 
HETATM   28  C30 UNL     1      -1.639  12.363  17.291  1.00  0.00     0.119 C 
ENDROOT
BRANCH   4  29
HETATM   29  C5  UNL     1      -3.817   9.228  16.225  1.00  0.00     0.180 C 
BRANCH  29  30
HETATM   30  O1  UNL     1      -2.667   8.455  16.642  1.00  0.00    -0.390 OA
HETATM   31  H9  UNL     1      -1.966   9.109  16.870  1.00  0.00     0.210 HD
ENDBRANCH  29  30
BRANCH  29  32
HETATM   32  C6  UNL     1      -4.691   8.383  15.234  1.00  0.00     0.079 C 
HETATM   33  C7  UNL     1      -6.163   8.823  15.253  1.00  0.00     0.048 C 
HETATM   34  C8  UNL     1      -4.191   8.502  13.786  1.00  0.00     0.048 C 
BRANCH  32  35
HETATM   35  O2  UNL     1      -4.689   7.005  15.633  1.00  0.00    -0.388 OA
HETATM   36  H16 UNL     1      -4.463   6.441  14.869  1.00  0.00     0.210 HD
ENDBRANCH  32  35
ENDBRANCH  29  32
ENDBRANCH   4  29
BRANCH  28  37
HETATM   37  O6  UNL     1      -1.477  13.131  16.038  1.00  0.00    -0.384 OA
HETATM   38  H50 UNL     1      -0.780  12.659  15.528  1.00  0.00     0.210 HD
ENDBRANCH  28  37
BRANCH  27  39
HETATM   39  O5  UNL     1       0.312  13.716  17.372  1.00  0.00    -0.386 OA
HETATM   40  H49 UNL     1      -0.339  14.215  16.828  1.00  0.00     0.210 HD
ENDBRANCH  27  39
TORSDOF 6
ENDMDL
