MODEL 1
REMARK minimizedAffinity -8.43070507
REMARK CNNscore 0.540194213
REMARK CNNaffinity 7.23010588
REMARK  5 active torsions:
REMARK  status: ('A' for Active; 'I' for Inactive)
REMARK    1  A    between atoms: C2_2  and  C25_28 
REMARK    2  A    between atoms: C3_3  and  C4_4 
REMARK    3  A    between atoms: C4_4  and  C6_6 
REMARK    4  A    between atoms: C15_15  and  O1_16 
REMARK    5  A    between atoms: C25_28  and  C27_30 
ROOT
HETATM    1  C6  UNL     1      -2.255   5.875  12.881  1.00  0.00     0.001 C 
HETATM    2  C7  UNL     1      -2.813   4.700  12.021  1.00  0.00     0.006 C 
HETATM    3  C8  UNL     1      -4.327   4.635  12.272  1.00  0.00     0.009 C 
HETATM    4  C9  UNL     1      -4.610   5.880  13.104  1.00  0.00     0.036 C 
HETATM    5  C10 UNL     1      -5.962   6.017  13.814  1.00  0.00     0.123 C 
HETATM    6  C11 UNL     1      -6.413   4.864  14.676  1.00  0.00     0.014 C 
HETATM    7  C12 UNL     1      -7.649   5.016  15.171  1.00  0.00     0.014 C 
HETATM    8  C13 UNL     1      -8.287   6.343  14.817  1.00  0.00     0.124 C 
HETATM    9  C14 UNL     1      -9.738   6.446  15.297  1.00  0.00     0.078 C 
HETATM   10  C15 UNL     1     -10.353   7.804  14.952  1.00  0.00     0.121 C 
HETATM   11  C16 UNL     1      -9.503   8.979  15.435  1.00  0.00     0.033 C 
HETATM   12  C17 UNL     1      -8.053   8.875  14.962  1.00  0.00     0.015 C 
HETATM   13  C18 UNL     1      -7.385   7.519  15.334  1.00  0.00     0.001 C 
HETATM   14  C19 UNL     1      -7.222   7.467  16.876  1.00  0.00     0.019 C 
HETATM   15  C20 UNL     1      -6.003   7.390  14.569  1.00  0.00     0.039 C 
HETATM   16  C21 UNL     1      -4.736   7.665  15.405  1.00  0.00     0.010 C 
HETATM   17  C22 UNL     1      -3.431   7.460  14.613  1.00  0.00     0.010 C 
HETATM   18  C23 UNL     1      -3.347   6.054  13.986  1.00  0.00    -0.033 C 
HETATM   19  C24 UNL     1      -3.179   4.992  15.095  1.00  0.00     0.016 C 
HETATM   20  O2  UNL     1      -8.310   6.438  13.366  1.00  0.00    -0.223 OA
HETATM   21  O3  UNL     1      -6.978   6.101  12.777  1.00  0.00    -0.224 OA
ENDROOT
BRANCH   1  22
HETATM   22  C4  UNL     1      -0.778   5.636  13.295  1.00  0.00     0.009 C 
HETATM   23  C5  UNL     1      -0.242   6.699  14.255  1.00  0.00     0.014 C 
BRANCH  22  24
HETATM   24  C3  UNL     1       0.113   5.634  12.064  1.00  0.00    -0.019 C 
HETATM   25  C2  UNL     1       0.454   6.673  11.272  1.00  0.00    -0.083 C 
HETATM   26  C1  UNL     1      -0.046   8.084  11.449  1.00  0.00     0.043 C 
BRANCH  25  27
HETATM   27  C25 UNL     1       1.398   6.490  10.076  1.00  0.00     0.013 C 
HETATM   28  C26 UNL     1       2.606   5.636  10.491  1.00  0.00     0.015 C 
BRANCH  27  29
HETATM   29  C27 UNL     1       1.810   7.839   9.410  1.00  0.00    -0.015 C 
HETATM   30  C28 UNL     1       1.118   8.030   8.052  1.00  0.00     0.010 C 
HETATM   31  C29 UNL     1       3.326   7.944   9.208  1.00  0.00     0.010 C 
ENDBRANCH  27  29
ENDBRANCH  25  27
ENDBRANCH  22  24
ENDBRANCH   1  22
BRANCH  10  32
HETATM   32  O1  UNL     1     -11.654   7.897  15.531  1.00  0.00    -0.395 OA
HETATM   33  H20 UNL     1     -11.560   7.856  16.500  1.00  0.00     0.210 HD
ENDBRANCH  10  32
TORSDOF 5
ENDMDL
