MODEL 1
REMARK minimizedAffinity -5.67452526
REMARK CNNscore 0.322935641
REMARK CNNaffinity 6.76263857
REMARK  12 active torsions:
REMARK  status: ('A' for Active; 'I' for Inactive)
REMARK    1  A    between atoms: C2_2  and  O2_4 
REMARK    2  A    between atoms: O2_4  and  C3_5 
REMARK    3  A    between atoms: C4_6  and  O3_7 
REMARK    4  A    between atoms: O3_7  and  C5_8 
REMARK    5  A    between atoms: C5_8  and  C6_10 
REMARK    6  A    between atoms: C12_16  and  C13_17 
REMARK    7  A    between atoms: C13_17  and  O5_18 
REMARK    8  A    between atoms: O5_18  and  C14_19 
REMARK    9  A    between atoms: C14_19  and  C15_21 
REMARK   10  A    between atoms: C20_28  and  O7_29 
REMARK   11  A    between atoms: O7_29  and  C21_30 
REMARK   12  A    between atoms: C21_30  and  C22_32 
ROOT
HETATM    1  C3  UNL     1     -13.478   9.572  18.103  1.00  0.00     0.169 C 
HETATM    2  C4  UNL     1     -12.467  10.452  17.314  1.00  0.00     0.178 C 
HETATM    3  C12 UNL     1     -11.981   9.797  15.962  1.00  0.00     0.069 C 
HETATM    4  C20 UNL     1     -11.589  10.984  14.989  1.00  0.00     0.148 C 
HETATM    5  C25 UNL     1     -11.881  10.737  13.496  1.00  0.00     0.034 C 
HETATM    6  C26 UNL     1     -11.829   9.266  13.126  1.00  0.00     0.010 C 
HETATM    7  C27 UNL     1     -12.872   8.432  13.896  1.00  0.00     0.017 C 
HETATM    8  C28 UNL     1     -12.451   6.958  13.862  1.00  0.00     0.013 C 
HETATM    9  C29 UNL     1     -13.178   9.007  15.314  1.00  0.00     0.080 C 
HETATM   10  C30 UNL     1     -13.806   7.982  16.264  1.00  0.00     0.050 C 
HETATM   11  C31 UNL     1     -14.546   8.907  17.207  1.00  0.00     0.054 C 
HETATM   12  C32 UNL     1     -15.245   9.827  16.186  1.00  0.00     0.061 C 
HETATM   13  C33 UNL     1     -15.724  11.184  16.712  1.00  0.00     0.046 C 
HETATM   14  C34 UNL     1     -16.469   9.147  15.535  1.00  0.00     0.046 C 
HETATM   15  O9  UNL     1     -14.253  10.008  15.149  1.00  0.00    -0.368 OA
ENDROOT
BRANCH   3  16
HETATM   16  C13 UNL     1     -10.723   8.909  16.234  1.00  0.00     0.197 C 
BRANCH  16  17
HETATM   17  O5  UNL     1     -10.215   8.255  15.060  1.00  0.00    -0.316 OA
BRANCH  17  18
HETATM   18  C14 UNL     1      -8.860   8.119  15.060  1.00  0.00     0.294 C 
HETATM   19  O6  UNL     1      -8.056   9.021  15.231  1.00  0.00    -0.259 OA
BRANCH  18  20
HETATM   20  C15 UNL     1      -8.454   6.723  14.801  1.00  0.00     0.054 A 
HETATM   21  C16 UNL     1      -8.366   6.155  13.527  1.00  0.00     0.020 A 
HETATM   22  C17 UNL     1      -7.974   4.822  13.396  1.00  0.00     0.018 A 
HETATM   23  C18 UNL     1      -7.685   4.102  14.545  1.00  0.00     0.087 A 
HETATM   24  N1  UNL     1      -7.771   4.615  15.791  1.00  0.00    -0.374 N 
HETATM   25  C19 UNL     1      -8.155   5.913  15.890  1.00  0.00     0.105 A 
ATOM     26  H1  UNL     1      -7.558   4.054  16.617  1.00  0.00     0.164 HD
ENDBRANCH  18  20
ENDBRANCH  17  18
ENDBRANCH  16  17
ENDBRANCH   3  16
BRANCH   2  27
HETATM   27  O3  UNL     1     -11.311  10.747  18.138  1.00  0.00    -0.308 OA
BRANCH  27  28
HETATM   28  C5  UNL     1     -11.132  10.012  19.263  1.00  0.00     0.293 C 
HETATM   29  O4  UNL     1     -11.190   8.795  19.345  1.00  0.00    -0.259 OA
BRANCH  28  30
HETATM   30  C6  UNL     1     -10.842  10.898  20.421  1.00  0.00     0.039 A 
HETATM   31  C7  UNL     1     -10.997  10.369  21.710  1.00  0.00     0.017 A 
HETATM   32  C8  UNL     1     -10.722  11.156  22.830  1.00  0.00     0.001 A 
HETATM   33  C9  UNL     1     -10.295  12.475  22.668  1.00  0.00     0.000 A 
HETATM   34  C10 UNL     1     -10.141  13.009  21.389  1.00  0.00     0.001 A 
HETATM   35  C11 UNL     1     -10.412  12.224  20.265  1.00  0.00     0.017 A 
ENDBRANCH  28  30
ENDBRANCH  27  28
ENDBRANCH   2  27
BRANCH   4  36
HETATM   36  O7  UNL     1     -10.174  11.263  15.091  1.00  0.00    -0.315 OA
BRANCH  36  37
HETATM   37  C21 UNL     1      -9.772  12.565  15.099  1.00  0.00     0.262 C 
HETATM   38  O8  UNL     1      -9.652  13.274  14.111  1.00  0.00    -0.265 OA
BRANCH  37  39
HETATM   39  C22 UNL     1      -9.473  12.992  16.527  1.00  0.00     0.077 C 
HETATM   40  C23 UNL     1     -10.497  14.009  17.022  1.00  0.00     0.020 C 
HETATM   41  C24 UNL     1      -8.059  13.560  16.592  1.00  0.00     0.020 C 
ENDBRANCH  37  39
ENDBRANCH  36  37
ENDBRANCH   4  36
BRANCH   1  42
HETATM   42  O2  UNL     1     -14.165  10.347  19.108  1.00  0.00    -0.313 OA
BRANCH  42  43
HETATM   43  C2  UNL     1     -15.007   9.674  19.938  1.00  0.00     0.255 C 
HETATM   44  C1  UNL     1     -14.229   8.753  20.828  1.00  0.00     0.126 C 
HETATM   45  O1  UNL     1     -16.222   9.815  19.986  1.00  0.00    -0.266 OA
ENDBRANCH  42  43
ENDBRANCH   1  42
TORSDOF 12
ENDMDL
