MODEL 1
REMARK minimizedAffinity -7.29048538
REMARK CNNscore 0.585752904
REMARK CNNaffinity 7.05269051
REMARK  15 active torsions:
REMARK  status: ('A' for Active; 'I' for Inactive)
REMARK    1  A    between atoms: O1_2  and  C2_3 
REMARK    2  A    between atoms: C3_4  and  O2_5 
REMARK    3  A    between atoms: C5_7  and  O3_8 
REMARK    4  A    between atoms: O3_8  and  C6_9 
REMARK    5  A    between atoms: C12_15  and  O4_16 
REMARK    6  A    between atoms: C13_17  and  O5_18 
REMARK    7  A    between atoms: C15_20  and  O6_21 
REMARK    8  A    between atoms: C21_27  and  C22_28 
REMARK    9  A    between atoms: C22_28  and  C24_30 
REMARK   10  A    between atoms: C25_31  and  C26_32 
REMARK   11  A    between atoms: C26_32  and  C28_34 
REMARK   12  A    between atoms: C28_34  and  C30_36 
REMARK   13  A    between atoms: C30_36  and  O7_37 
REMARK   14  A    between atoms: C32_39  and  O8_40 
REMARK   15  A    between atoms: C35_44  and  O10_45 
ROOT
HETATM    1  C6  UNL     1       5.015  10.762  15.946  1.00  0.00     0.154 C 
HETATM    2  C7  UNL     1       4.252  11.687  14.992  1.00  0.00     0.035 C 
HETATM    3  C8  UNL     1       2.759  11.348  14.882  1.00  0.00     0.012 C 
HETATM    4  C9  UNL     1       2.483   9.861  14.522  1.00  0.00    -0.029 C 
HETATM    5  C10 UNL     1       2.988   9.631  13.078  1.00  0.00     0.016 C 
HETATM    6  C11 UNL     1       3.209   8.999  15.610  1.00  0.00     0.054 C 
HETATM    7  C12 UNL     1       4.717   9.265  15.698  1.00  0.00     0.154 C 
HETATM    8  C13 UNL     1       2.782   7.508  15.642  1.00  0.00     0.128 C 
HETATM    9  C14 UNL     1       1.770   7.042  14.593  1.00  0.00     0.071 C 
HETATM   10  C15 UNL     1       0.655   8.035  14.192  1.00  0.00     0.071 C 
HETATM   11  C16 UNL     1       0.969   9.491  14.676  1.00  0.00     0.029 C 
HETATM   12  C17 UNL     1      -0.054  10.499  14.116  1.00  0.00     0.009 C 
HETATM   13  C18 UNL     1      -1.493  10.128  14.547  1.00  0.00     0.010 C 
HETATM   14  C19 UNL     1      -1.885   8.684  14.167  1.00  0.00    -0.031 C 
HETATM   15  C20 UNL     1      -2.138   8.623  12.637  1.00  0.00     0.016 C 
HETATM   16  C21 UNL     1      -3.111   8.077  14.925  1.00  0.00     0.004 C 
HETATM   17  C31 UNL     1      -2.882   6.544  14.759  1.00  0.00     0.038 C 
HETATM   18  C32 UNL     1      -1.380   6.336  14.505  1.00  0.00     0.126 C 
HETATM   19  C33 UNL     1      -0.769   7.720  14.712  1.00  0.00     0.058 C 
ENDROOT
BRANCH   1  20
HETATM   20  O3  UNL     1       6.440  10.922  15.797  1.00  0.00    -0.351 OA
BRANCH  20  21
HETATM   21  C5  UNL     1       7.198   9.770  16.182  1.00  0.00     0.291 C 
HETATM   22  C3  UNL     1       8.523   9.741  15.375  1.00  0.00     0.207 C 
HETATM   23  C2  UNL     1       9.661  10.506  16.097  1.00  0.00     0.185 C 
HETATM   24  C35 UNL     1       9.098  11.550  17.073  1.00  0.00     0.176 C 
HETATM   25  C34 UNL     1       8.174  10.850  18.078  1.00  0.00     0.205 C 
HETATM   26  O9  UNL     1       7.440   9.735  17.581  1.00  0.00    -0.356 OA
BRANCH  22  27
HETATM   27  O2  UNL     1       8.992   8.384  15.183  1.00  0.00    -0.383 OA
HETATM   28  C4  UNL     1       9.453   7.773  16.382  1.00  0.00     0.202 C 
ENDBRANCH  22  27
BRANCH  23  29
HETATM   29  O1  UNL     1      10.488  11.179  15.117  1.00  0.00    -0.385 OA
HETATM   30  C1  UNL     1       9.740  11.735  14.043  1.00  0.00     0.202 C 
ENDBRANCH  23  29
BRANCH  24  31
HETATM   31  O10 UNL     1      10.124  12.191  17.850  1.00  0.00    -0.386 OA
HETATM   32  C36 UNL     1       9.790  13.507  18.268  1.00  0.00     0.202 C 
ENDBRANCH  24  31
ENDBRANCH  20  21
ENDBRANCH   1  20
BRANCH   7  33
HETATM   33  O4  UNL     1       5.380   8.791  14.522  1.00  0.00    -0.393 OA
HETATM   34  H20 UNL     1       6.227   9.280  14.492  1.00  0.00     0.210 HD
ENDBRANCH   7  33
BRANCH   8  35
HETATM   35  O5  UNL     1       3.907   6.631  15.594  1.00  0.00    -0.395 OA
HETATM   36  H22 UNL     1       4.480   6.946  14.862  1.00  0.00     0.210 HD
ENDBRANCH   8  35
BRANCH  10  37
HETATM   37  O6  UNL     1       0.615   8.012  12.757  1.00  0.00    -0.389 OA
HETATM   38  H25 UNL     1       0.586   7.083  12.465  1.00  0.00     0.210 HD
ENDBRANCH  10  37
BRANCH  18  39
HETATM   39  O8  UNL     1      -0.861   5.406  15.442  1.00  0.00    -0.395 OA
HETATM   40  H55 UNL     1      -1.359   4.577  15.346  1.00  0.00     0.210 HD
ENDBRANCH  18  39
BRANCH  16  41
HETATM   41  C22 UNL     1      -4.557   8.499  14.535  1.00  0.00     0.009 C 
HETATM   42  C23 UNL     1      -5.122   9.598  15.439  1.00  0.00     0.014 C 
BRANCH  41  43
HETATM   43  C24 UNL     1      -5.458   7.272  14.459  1.00  0.00    -0.026 C 
HETATM   44  C25 UNL     1      -6.318   6.822  15.390  1.00  0.00    -0.026 C 
BRANCH  44  45
HETATM   45  C26 UNL     1      -7.222   5.598  15.289  1.00  0.00     0.009 C 
HETATM   46  C27 UNL     1      -8.636   5.858  15.835  1.00  0.00     0.014 C 
BRANCH  45  47
HETATM   47  C28 UNL     1      -7.237   5.014  13.840  1.00  0.00     0.012 C 
HETATM   48  C29 UNL     1      -5.839   4.583  13.369  1.00  0.00     0.012 C 
BRANCH  47  49
HETATM   49  C30 UNL     1      -7.847   6.018  12.840  1.00  0.00     0.168 C 
BRANCH  49  50
HETATM   50  O7  UNL     1      -8.850   5.413  12.029  1.00  0.00    -0.400 OA
HETATM   51  H51 UNL     1      -8.401   4.937  11.311  1.00  0.00     0.209 HD
ENDBRANCH  49  50
ENDBRANCH  47  49
ENDBRANCH  45  47
ENDBRANCH  44  45
ENDBRANCH  41  43
ENDBRANCH  16  41
TORSDOF 15
ENDMDL
