MODEL 1
REMARK minimizedAffinity -10.2723598
REMARK  5 active torsions:
REMARK  status: ('A' for Active; 'I' for Inactive)
REMARK    1  A    between atoms: C2_2  and  C3_3 
REMARK    2  A    between atoms: C2_2  and  C9_12 
REMARK    3  A    between atoms: C3_3  and  C4_4 
REMARK    4  A    between atoms: C6_6  and  C7_7 
REMARK    5  A    between atoms: C7_7  and  O1_8 
ROOT
HETATM    1  C9  UNL     1      -4.365   7.227  15.072  1.00  0.00    -0.002 C 
HETATM    2  C10 UNL     1      -3.880   5.941  15.804  1.00  0.00     0.007 C 
HETATM    3  C11 UNL     1      -2.545   5.520  15.161  1.00  0.00     0.015 C 
HETATM    4  C12 UNL     1      -2.122   6.729  14.303  1.00  0.00    -0.013 C 
HETATM    5  C13 UNL     1      -1.407   7.721  15.275  1.00  0.00     0.021 C 
HETATM    6  C14 UNL     1      -1.148   6.494  13.154  1.00  0.00    -0.070 C 
HETATM    7  C15 UNL     1      -0.219   5.528  13.195  1.00  0.00    -0.022 C 
HETATM    8  C16 UNL     1       0.835   5.326  12.163  1.00  0.00     0.034 C 
HETATM    9  C17 UNL     1       0.787   6.227  10.889  1.00  0.00     0.013 C 
HETATM   10  C18 UNL     1       2.217   6.249  10.213  1.00  0.00     0.018 C 
HETATM   11  C19 UNL     1       2.205   6.728   8.748  1.00  0.00     0.023 C 
HETATM   12  C20 UNL     1       2.838   4.828  10.179  1.00  0.00     0.023 C 
HETATM   13  C21 UNL     1       3.125   7.183  11.030  1.00  0.00     0.135 C 
HETATM   14  O4  UNL     1       4.304   6.907  11.255  1.00  0.00    -0.297 OA
HETATM   15  C22 UNL     1       2.565   8.528  11.458  1.00  0.00     0.080 C 
HETATM   16  C23 UNL     1       1.173   8.434  12.079  1.00  0.00     0.017 C 
HETATM   17  C24 UNL     1       0.163   7.644  11.213  1.00  0.00    -0.031 C 
HETATM   18  C25 UNL     1      -0.138   8.445   9.921  1.00  0.00     0.016 C 
HETATM   19  C26 UNL     1      -1.233   7.428  11.951  1.00  0.00     0.024 C 
HETATM   20  C27 UNL     1      -2.009   8.735  12.278  1.00  0.00     0.010 C 
HETATM   21  C28 UNL     1      -3.328   8.578  13.071  1.00  0.00     0.011 C 
HETATM   22  C29 UNL     1      -3.512   7.214  13.761  1.00  0.00    -0.029 C 
HETATM   23  C30 UNL     1      -4.166   6.218  12.753  1.00  0.00     0.016 C 
ENDROOT
BRANCH   1  24
HETATM   24  C2  UNL     1      -5.917   7.307  14.987  1.00  0.00    -0.011 C 
HETATM   25  C1  UNL     1      -6.452   8.727  15.196  1.00  0.00     0.010 C 
BRANCH  24  26
HETATM   26  C3  UNL     1      -6.623   6.304  15.947  1.00  0.00     0.041 C 
BRANCH  26  27
HETATM   27  C4  UNL     1      -7.750   5.462  15.331  1.00  0.00     0.156 A 
HETATM   28  C5  UNL     1      -7.268   4.151  14.840  1.00  0.00     0.021 A 
HETATM   29  C6  UNL     1      -7.433   4.036  13.523  1.00  0.00     0.039 A 
HETATM   30  C8  UNL     1      -8.047   5.285  13.072  1.00  0.00     0.291 A 
HETATM   31  O2  UNL     1      -8.337   5.551  11.921  1.00  0.00    -0.260 OA
HETATM   32  O3  UNL     1      -8.248   6.094  14.148  1.00  0.00    -0.308 OA
BRANCH  29  33
HETATM   33  C7  UNL     1      -7.143   2.946  12.571  1.00  0.00     0.208 C 
BRANCH  33  34
HETATM   34  O1  UNL     1      -8.124   1.920  12.691  1.00  0.00    -0.396 OA
HETATM   35  H11 UNL     1      -7.920   1.260  12.007  1.00  0.00     0.209 HD
ENDBRANCH  33  34
ENDBRANCH  29  33
ENDBRANCH  26  27
ENDBRANCH  24  26
ENDBRANCH   1  24
TORSDOF 5
ENDMDL
