MODEL 1
REMARK minimizedAffinity -8.63669395
REMARK  12 active torsions:
REMARK  status: ('A' for Active; 'I' for Inactive)
REMARK    1  A    between atoms: C2_2  and  C3_3 
REMARK    2  A    between atoms: C3_3  and  O2_5 
REMARK    3  A    between atoms: C14_16  and  C15_17 
REMARK    4  A    between atoms: C15_17  and  C17_19 
REMARK    5  A    between atoms: C17_19  and  C18_20 
REMARK    6  A    between atoms: C18_20  and  C19_21 
REMARK    7  A    between atoms: C20_22  and  C22_24 
REMARK    8  A    between atoms: C22_24  and  O4_26 
REMARK    9  A    between atoms: C27_31  and  C28_32 
REMARK   10  A    between atoms: C28_32  and  C29_33 
REMARK   11  A    between atoms: C29_33  and  C30_34 
REMARK   12  A    between atoms: C30_34  and  O5_35 
ROOT
HETATM    1  C1  UNL     1       2.964   5.128   7.176  1.00  0.00     0.056 C 
HETATM    2  C2  UNL     1       3.385   5.258   8.611  1.00  0.00     0.014 C 
HETATM    3  C4  UNL     1       3.422   6.419   9.313  1.00  0.00    -0.062 C 
HETATM    4  C5  UNL     1       3.062   7.741   8.688  1.00  0.00     0.036 C 
HETATM    5  C6  UNL     1       1.871   8.395   9.383  1.00  0.00     0.010 C 
HETATM    6  C7  UNL     1       1.817   8.237  10.925  1.00  0.00     0.003 C 
HETATM    7  C8  UNL     1       3.192   7.768  11.563  1.00  0.00    -0.032 C 
HETATM    8  C9  UNL     1       4.148   8.998  11.539  1.00  0.00     0.016 C 
HETATM    9  C10 UNL     1       3.047   7.394  13.087  1.00  0.00     0.011 C 
HETATM   10  C11 UNL     1       1.736   6.720  13.531  1.00  0.00     0.011 C 
HETATM   11  C12 UNL     1       0.506   7.480  13.012  1.00  0.00    -0.032 C 
HETATM   12  C13 UNL     1       0.519   8.920  13.621  1.00  0.00     0.016 C 
HETATM   13  C14 UNL     1      -0.901   6.855  13.276  1.00  0.00    -0.002 C 
HETATM   14  C23 UNL     1      -1.763   7.499  12.142  1.00  0.00     0.006 C 
HETATM   15  C24 UNL     1      -0.795   8.066  11.083  1.00  0.00     0.011 C 
HETATM   16  C25 UNL     1       0.568   7.441  11.434  1.00  0.00    -0.032 C 
HETATM   17  C26 UNL     1       0.528   6.002  10.825  1.00  0.00     0.016 C 
HETATM   18  C27 UNL     1       3.820   6.521  10.791  1.00  0.00     0.024 C 
ENDROOT
BRANCH  13  19
HETATM   19  C15 UNL     1      -1.586   7.001  14.672  1.00  0.00    -0.014 C 
HETATM   20  C16 UNL     1      -0.572   7.249  15.793  1.00  0.00     0.010 C 
BRANCH  19  21
HETATM   21  C17 UNL     1      -2.422   5.726  14.984  1.00  0.00     0.008 C 
BRANCH  21  22
HETATM   22  C18 UNL     1      -3.697   5.528  14.149  1.00  0.00     0.028 C 
BRANCH  22  23
HETATM   23  C19 UNL     1      -3.560   4.442  13.119  1.00  0.00    -0.013 C 
HETATM   24  C20 UNL     1      -4.542   3.739  12.518  1.00  0.00     0.008 C 
HETATM   25  C21 UNL     1      -6.015   3.891  12.748  1.00  0.00     0.055 C 
BRANCH  24  26
HETATM   26  C22 UNL     1      -4.107   2.720  11.526  1.00  0.00     0.171 C 
HETATM   27  O3  UNL     1      -3.798   1.564  11.753  1.00  0.00    -0.646 OA
BRANCH  26  28
HETATM   28  O4  UNL     1      -4.077   3.205  10.273  1.00  0.00    -0.773 OA
HETATM   29  H33 UNL     1      -3.779   2.438   9.741  1.00  0.00     0.167 HD
ENDBRANCH  26  28
ENDBRANCH  24  26
ENDBRANCH  22  23
ENDBRANCH  21  22
ENDBRANCH  19  21
ENDBRANCH  13  19
BRANCH  18  30
HETATM   30  C28 UNL     1       5.346   6.293  11.021  1.00  0.00     0.012 C 
BRANCH  30  31
HETATM   31  C29 UNL     1       6.198   7.540  11.304  1.00  0.00     0.027 C 
BRANCH  31  32
HETATM   32  C30 UNL     1       7.116   7.339  12.506  1.00  0.00     0.164 C 
BRANCH  32  33
HETATM   33  O5  UNL     1       6.402   6.727  13.571  1.00  0.00    -0.401 OA
HETATM   34  H48 UNL     1       7.026   6.623  14.309  1.00  0.00     0.209 HD
ENDBRANCH  32  33
ENDBRANCH  31  32
ENDBRANCH  30  31
ENDBRANCH  18  30
BRANCH   2  35
HETATM   35  C3  UNL     1       3.763   3.971   9.240  1.00  0.00     0.171 C 
HETATM   36  O1  UNL     1       4.793   3.344   9.080  1.00  0.00    -0.646 OA
BRANCH  35  37
HETATM   37  O2  UNL     1       2.789   3.547  10.063  1.00  0.00    -0.773 OA
HETATM   38  H4  UNL     1       3.113   2.676  10.375  1.00  0.00     0.167 HD
ENDBRANCH  35  37
ENDBRANCH   2  35
TORSDOF 12
ENDMDL
