MODEL 1
REMARK minimizedAffinity -8.21230221
REMARK CNNscore 0.387826741
REMARK CNNaffinity 7.11869431
REMARK  15 active torsions:
REMARK  status: ('A' for Active; 'I' for Inactive)
REMARK    1  A    between atoms: O1_2  and  C2_3 
REMARK    2  A    between atoms: C10_14  and  C11_15 
REMARK    3  A    between atoms: C11_15  and  C12_16 
REMARK    4  A    between atoms: C12_16  and  O5_17 
REMARK    5  A    between atoms: C12_16  and  C13_18 
REMARK    6  A    between atoms: C13_18  and  C14_19 
REMARK    7  A    between atoms: C15_20  and  C16_21 
REMARK    8  A    between atoms: C17_22  and  C19_24 
REMARK    9  A    between atoms: C19_24  and  C20_25 
REMARK   10  A    between atoms: C21_26  and  C22_27 
REMARK   11  A    between atoms: C23_28  and  C24_29 
REMARK   12  A    between atoms: C24_29  and  C25_30 
REMARK   13  A    between atoms: C25_30  and  O6_31 
REMARK   14  A    between atoms: C32_39  and  O8_40 
REMARK   15  A    between atoms: C33_41  and  O9_42 
ROOT
HETATM    1  C2  UNL     1      -0.722  51.106 -21.042  1.00  0.00     0.192 C 
HETATM    2  C3  UNL     1      -0.176  52.316 -21.858  1.00  0.00     0.074 C 
HETATM    3  C4  UNL     1      -1.153  52.923 -22.874  1.00  0.00     0.037 C 
HETATM    4  C5  UNL     1      -1.050  52.258 -24.243  1.00  0.00     0.122 C 
HETATM    5  C6  UNL     1       0.133  52.688 -25.091  1.00  0.00     0.035 C 
HETATM    6  C7  UNL     1      -0.348  52.440 -26.517  1.00  0.00     0.045 C 
HETATM    7  C8  UNL     1      -1.841  52.136 -26.378  1.00  0.00     0.221 C 
HETATM    8  O2  UNL     1      -2.181  52.605 -25.057  1.00  0.00    -0.371 OA
HETATM    9  C9  UNL     1      -2.152  50.634 -26.475  1.00  0.00     0.288 C 
HETATM   10  O3  UNL     1      -1.378  49.774 -26.877  1.00  0.00    -0.262 OA
HETATM   11  O4  UNL     1      -3.404  50.383 -25.990  1.00  0.00    -0.314 OA
HETATM   12  C10 UNL     1      -3.605  49.088 -25.392  1.00  0.00     0.134 C 
HETATM   13  C26 UNL     1      -3.864  49.367 -23.894  1.00  0.00     0.033 C 
HETATM   14  C27 UNL     1      -3.683  48.139 -22.997  1.00  0.00     0.005 C 
HETATM   15  C28 UNL     1      -2.281  47.978 -22.377  1.00  0.00     0.032 C 
HETATM   16  C29 UNL     1      -1.850  48.986 -21.285  1.00  0.00     0.131 C 
HETATM   17  O7  UNL     1      -1.315  50.151 -21.931  1.00  0.00    -0.347 OA
HETATM   18  C30 UNL     1      -2.937  49.357 -20.265  1.00  0.00     0.042 C 
HETATM   19  C31 UNL     1      -3.441  48.132 -19.489  1.00  0.00     0.015 C 
HETATM   20  C32 UNL     1      -2.414  50.411 -19.282  1.00  0.00     0.158 C 
HETATM   21  C33 UNL     1      -1.772  51.601 -20.008  1.00  0.00     0.209 C 
ENDROOT
BRANCH  12  22
HETATM   22  C11 UNL     1      -4.812  48.393 -26.041  1.00  0.00     0.064 C 
BRANCH  22  23
HETATM   23  C12 UNL     1      -4.875  48.483 -27.575  1.00  0.00     0.124 C 
BRANCH  23  24
HETATM   24  O5  UNL     1      -3.575  48.107 -28.059  1.00  0.00    -0.395 OA
HETATM   25  H18 UNL     1      -3.676  47.685 -28.928  1.00  0.00     0.210 HD
ENDBRANCH  23  24
BRANCH  23  26
HETATM   26  C13 UNL     1      -5.966  47.653 -28.281  1.00  0.00     0.059 C 
BRANCH  26  27
HETATM   27  C14 UNL     1      -6.207  48.022 -29.720  1.00  0.00    -0.024 C 
HETATM   28  C15 UNL     1      -7.164  47.584 -30.554  1.00  0.00    -0.004 C 
BRANCH  28  29
HETATM   29  C16 UNL     1      -8.221  46.649 -30.252  1.00  0.00     0.002 C 
HETATM   30  C17 UNL     1      -8.106  45.313 -30.107  1.00  0.00    -0.080 C 
HETATM   31  C18 UNL     1      -9.351  44.495 -29.851  1.00  0.00     0.043 C 
BRANCH  30  32
HETATM   32  C19 UNL     1      -6.817  44.515 -30.218  1.00  0.00     0.060 C 
BRANCH  32  33
HETATM   33  C20 UNL     1      -6.528  44.042 -31.620  1.00  0.00    -0.022 C 
HETATM   34  C21 UNL     1      -5.531  44.440 -32.426  1.00  0.00    -0.004 C 
BRANCH  34  35
HETATM   35  C22 UNL     1      -4.474  45.363 -32.064  1.00  0.00    -0.004 C 
HETATM   36  C23 UNL     1      -4.262  46.583 -32.576  1.00  0.00    -0.025 C 
BRANCH  36  37
HETATM   37  C24 UNL     1      -5.090  47.330 -33.591  1.00  0.00     0.053 C 
BRANCH  37  38
HETATM   38  C25 UNL     1      -4.294  48.459 -34.255  1.00  0.00     0.168 C 
BRANCH  38  39
HETATM   39  O6  UNL     1      -4.989  48.975 -35.392  1.00  0.00    -0.401 OA
HETATM   40  H37 UNL     1      -5.869  49.265 -35.094  1.00  0.00     0.209 HD
ENDBRANCH  38  39
ENDBRANCH  37  38
ENDBRANCH  36  37
ENDBRANCH  34  35
ENDBRANCH  32  33
ENDBRANCH  30  32
ENDBRANCH  28  29
ENDBRANCH  26  27
ENDBRANCH  23  26
ENDBRANCH  22  23
ENDBRANCH  12  22
BRANCH   1  41
HETATM   41  O1  UNL     1       0.345  50.523 -20.252  1.00  0.00    -0.358 OA
HETATM   42  C1  UNL     1       0.148  50.558 -18.844  1.00  0.00     0.205 C 
ENDBRANCH   1  41
BRANCH  20  43
HETATM   43  O8  UNL     1      -3.520  50.882 -18.496  1.00  0.00    -0.392 OA
HETATM   44  H50 UNL     1      -3.286  50.757 -17.552  1.00  0.00     0.210 HD
ENDBRANCH  20  43
BRANCH  21  45
HETATM   45  O9  UNL     1      -1.143  52.460 -19.030  1.00  0.00    -0.387 OA
HETATM   46  H52 UNL     1      -0.329  51.988 -18.763  1.00  0.00     0.210 HD
ENDBRANCH  21  45
TORSDOF 15
ENDMDL
