MODEL 1
REMARK minimizedAffinity -10.1822519
REMARK  8 active torsions:
REMARK  status: ('A' for Active; 'I' for Inactive)
REMARK    1  A    between atoms: C2_2  and  C3_3 
REMARK    2  A    between atoms: C2_2  and  C9_11 
REMARK    3  A    between atoms: C3_3  and  C4_4 
REMARK    4  A    between atoms: C4_4  and  O1_5 
REMARK    5  A    between atoms: C4_4  and  C5_6 
REMARK    6  A    between atoms: C20_22  and  O3_23 
REMARK    7  A    between atoms: C23_27  and  C25_29 
REMARK    8  A    between atoms: C25_29  and  O5_30 
ROOT
HETATM    1  C9  UNL     1       0.653   7.345  12.549  1.00  0.00    -0.002 C 
HETATM    2  C10 UNL     1       0.683   6.056  11.676  1.00  0.00     0.007 C 
HETATM    3  C11 UNL     1      -0.710   5.405  11.789  1.00  0.00     0.015 C 
HETATM    4  C12 UNL     1      -1.372   6.096  13.000  1.00  0.00    -0.013 C 
HETATM    5  C13 UNL     1      -0.824   5.365  14.269  1.00  0.00     0.021 C 
HETATM    6  C14 UNL     1      -2.892   6.050  13.122  1.00  0.00    -0.070 C 
HETATM    7  C15 UNL     1      -3.617   5.016  12.663  1.00  0.00    -0.022 C 
HETATM    8  C16 UNL     1      -5.089   4.851  12.871  1.00  0.00     0.034 C 
HETATM    9  C17 UNL     1      -5.815   6.086  13.458  1.00  0.00     0.018 C 
HETATM   10  C18 UNL     1      -4.941   6.836  14.537  1.00  0.00    -0.005 C 
HETATM   11  C19 UNL     1      -4.689   5.933  15.771  1.00  0.00     0.019 C 
HETATM   12  C20 UNL     1      -5.656   8.172  14.960  1.00  0.00     0.134 C 
HETATM   13  C21 UNL     1      -7.165   8.209  14.764  1.00  0.00     0.111 C 
HETATM   14  C22 UNL     1      -7.776   6.842  14.886  1.00  0.00     0.140 C 
HETATM   15  O4  UNL     1      -8.696   6.643  15.679  1.00  0.00    -0.297 OA
HETATM   16  C23 UNL     1      -7.300   5.777  13.895  1.00  0.00     0.043 C 
HETATM   17  C24 UNL     1      -8.222   5.903  12.658  1.00  0.00     0.026 C 
HETATM   18  C26 UNL     1      -3.564   7.222  13.838  1.00  0.00     0.026 C 
HETATM   19  C27 UNL     1      -2.580   8.031  14.722  1.00  0.00     0.011 C 
HETATM   20  C28 UNL     1      -1.223   8.389  14.070  1.00  0.00     0.011 C 
HETATM   21  C29 UNL     1      -0.872   7.574  12.808  1.00  0.00    -0.029 C 
HETATM   22  C30 UNL     1      -1.500   8.276  11.568  1.00  0.00     0.016 C 
ENDROOT
BRANCH   1  23
HETATM   23  C2  UNL     1       1.611   8.471  12.051  1.00  0.00    -0.011 C 
HETATM   24  C1  UNL     1       2.962   8.595  12.766  1.00  0.00     0.010 C 
BRANCH  23  25
HETATM   25  C3  UNL     1       1.783   8.420  10.512  1.00  0.00     0.039 C 
BRANCH  25  26
HETATM   26  C4  UNL     1       3.187   8.008  10.036  1.00  0.00     0.150 C 
BRANCH  26  27
HETATM   27  O1  UNL     1       3.598   6.821  10.714  1.00  0.00    -0.393 OA
HETATM   28  H8  UNL     1       3.203   6.058  10.263  1.00  0.00     0.210 HD
ENDBRANCH  26  27
BRANCH  26  29
HETATM   29  C5  UNL     1       3.179   7.749   8.555  1.00  0.00     0.185 A 
HETATM   30  O2  UNL     1       2.890   8.893   7.738  1.00  0.00    -0.367 OA
HETATM   31  C6  UNL     1       1.928   7.827   7.692  1.00  0.00     0.083 A 
HETATM   32  C7  UNL     1       1.911   7.085   6.391  1.00  0.00     0.048 C 
HETATM   33  C8  UNL     1       0.595   8.189   8.268  1.00  0.00     0.048 C 
ENDBRANCH  26  29
ENDBRANCH  25  26
ENDBRANCH  23  25
ENDBRANCH   1  23
BRANCH  12  34
HETATM   34  O3  UNL     1      -5.341   8.498  16.314  1.00  0.00    -0.394 OA
HETATM   35  H32 UNL     1      -5.740   9.360  16.527  1.00  0.00     0.210 HD
ENDBRANCH  12  34
BRANCH  16  36
HETATM   36  C25 UNL     1      -7.531   4.388  14.546  1.00  0.00     0.181 C 
BRANCH  36  37
HETATM   37  O5  UNL     1      -8.333   3.536  13.729  1.00  0.00    -0.400 OA
HETATM   38  H40 UNL     1      -9.259   3.662  13.999  1.00  0.00     0.209 HD
ENDBRANCH  36  37
ENDBRANCH  16  36
TORSDOF 8
ENDMDL
