MODEL 1
REMARK minimizedAffinity -6.71011829
REMARK CNNscore 0.562425554
REMARK CNNaffinity 6.69443703
REMARK  8 active torsions:
REMARK  status: ('A' for Active; 'I' for Inactive)
REMARK    1  A    between atoms: C4_4  and  C5_5 
REMARK    2  A    between atoms: C5_5  and  C6_6 
REMARK    3  A    between atoms: C6_6  and  C7_7 
REMARK    4  A    between atoms: C7_7  and  C9_9 
REMARK    5  A    between atoms: C21_21  and  C22_22 
REMARK    6  A    between atoms: C22_22  and  C23_23 
REMARK    7  A    between atoms: C23_23  and  C24_24 
REMARK    8  A    between atoms: C24_24  and  O1_25 
ROOT
HETATM    1  C9  UNL     1      -1.352  53.606  -8.930  1.00  0.00    -0.002 C 
HETATM    2  C10 UNL     1      -1.682  54.780  -9.910  1.00  0.00     0.006 C 
HETATM    3  C11 UNL     1      -0.357  55.233 -10.560  1.00  0.00     0.011 C 
HETATM    4  C12 UNL     1       0.741  54.578  -9.699  1.00  0.00    -0.032 C 
HETATM    5  C13 UNL     1       0.872  55.502  -8.449  1.00  0.00     0.016 C 
HETATM    6  C14 UNL     1       2.116  54.363 -10.413  1.00  0.00     0.003 C 
HETATM    7  C15 UNL     1       2.809  55.641 -10.938  1.00  0.00     0.010 C 
HETATM    8  C16 UNL     1       3.660  56.427  -9.937  1.00  0.00     0.035 C 
HETATM    9  C17 UNL     1       4.149  55.590  -8.763  1.00  0.00    -0.073 C 
HETATM   10  C18 UNL     1       4.248  56.133  -7.519  1.00  0.00    -0.085 C 
HETATM   11  C19 UNL     1       4.522  55.386  -6.239  1.00  0.00     0.043 C 
HETATM   12  C20 UNL     1       4.069  57.615  -7.255  1.00  0.00     0.043 C 
HETATM   13  C21 UNL     1       4.458  54.162  -9.244  1.00  0.00     0.023 C 
HETATM   14  C25 UNL     1       3.109  53.397  -9.624  1.00  0.00    -0.032 C 
HETATM   15  C26 UNL     1       3.513  52.235 -10.581  1.00  0.00     0.016 C 
HETATM   16  C27 UNL     1       2.453  52.758  -8.365  1.00  0.00     0.011 C 
HETATM   17  C28 UNL     1       0.950  52.401  -8.399  1.00  0.00     0.011 C 
HETATM   18  C29 UNL     1       0.079  53.176  -9.407  1.00  0.00    -0.032 C 
HETATM   19  C30 UNL     1      -0.125  52.277 -10.670  1.00  0.00     0.016 C 
ENDROOT
BRANCH   1  20
HETATM   20  C7  UNL     1      -2.509  52.561  -8.857  1.00  0.00    -0.014 C 
HETATM   21  C8  UNL     1      -1.939  51.171  -8.515  1.00  0.00     0.010 C 
BRANCH  20  22
HETATM   22  C6  UNL     1      -3.315  52.493 -10.176  1.00  0.00     0.008 C 
BRANCH  22  23
HETATM   23  C5  UNL     1      -3.632  51.084 -10.702  1.00  0.00     0.028 C 
BRANCH  23  24
HETATM   24  C4  UNL     1      -5.092  50.735 -10.582  1.00  0.00    -0.025 C 
HETATM   25  C2  UNL     1      -5.653  49.695  -9.937  1.00  0.00    -0.091 C 
HETATM   26  C1  UNL     1      -4.910  48.622  -9.190  1.00  0.00     0.042 C 
HETATM   27  C3  UNL     1      -7.152  49.528  -9.919  1.00  0.00     0.042 C 
ENDBRANCH  23  24
ENDBRANCH  22  23
ENDBRANCH  20  22
ENDBRANCH   1  20
BRANCH  13  28
HETATM   28  C22 UNL     1       5.487  53.325  -8.433  1.00  0.00     0.012 C 
BRANCH  28  29
HETATM   29  C23 UNL     1       6.664  52.756  -9.250  1.00  0.00     0.027 C 
BRANCH  29  30
HETATM   30  C24 UNL     1       6.942  51.278  -8.989  1.00  0.00     0.164 C 
BRANCH  30  31
HETATM   31  O1  UNL     1       7.561  50.668 -10.110  1.00  0.00    -0.401 OA
HETATM   32  H42 UNL     1       7.776  49.755  -9.855  1.00  0.00     0.209 HD
ENDBRANCH  30  31
ENDBRANCH  29  30
ENDBRANCH  28  29
ENDBRANCH  13  28
TORSDOF 8
ENDMDL
