MODEL 1
REMARK minimizedAffinity -7.53646755
REMARK CNNscore 0.859329522
REMARK CNNaffinity 6.60526991
REMARK  9 active torsions:
REMARK  status: ('A' for Active; 'I' for Inactive)
REMARK    1  A    between atoms: C2_2  and  C30_35 
REMARK    2  A    between atoms: C3_3  and  C4_4 
REMARK    3  A    between atoms: C4_4  and  O1_5 
REMARK    4  A    between atoms: C4_4  and  C5_6 
REMARK    5  A    between atoms: C5_6  and  C6_7 
REMARK    6  A    between atoms: C6_7  and  C8_9 
REMARK    7  A    between atoms: C10_11  and  O2_12 
REMARK    8  A    between atoms: C29_33  and  O5_34 
REMARK    9  A    between atoms: C30_35  and  O7_37 
ROOT
HETATM    1  C8  UNL     1       4.526  55.218  -8.292  1.00  0.00     0.001 C 
HETATM    2  C9  UNL     1       5.218  53.900  -8.741  1.00  0.00     0.038 C 
HETATM    3  C10 UNL     1       4.087  52.927  -9.128  1.00  0.00     0.132 C 
HETATM    4  C11 UNL     1       2.879  53.850  -9.454  1.00  0.00     0.017 C 
HETATM    5  C12 UNL     1       3.116  54.488 -10.864  1.00  0.00     0.023 C 
HETATM    6  C13 UNL     1       1.449  53.296  -9.536  1.00  0.00    -0.029 C 
HETATM    7  C14 UNL     1       0.374  54.091  -9.263  1.00  0.00     0.002 C 
HETATM    8  C15 UNL     1       0.620  55.494  -8.713  1.00  0.00     0.157 C 
HETATM    9  O3  UNL     1      -0.312  56.248  -8.444  1.00  0.00    -0.293 OA
HETATM   10  C16 UNL     1       2.038  55.999  -8.486  1.00  0.00     0.094 C 
HETATM   11  C17 UNL     1       3.006  54.848  -8.242  1.00  0.00    -0.019 C 
HETATM   12  C18 UNL     1       2.636  54.202  -6.874  1.00  0.00     0.017 C 
HETATM   13  C19 UNL     1      -1.104  53.621  -9.460  1.00  0.00    -0.008 C 
HETATM   14  C20 UNL     1      -1.595  53.244  -8.044  1.00  0.00     0.021 C 
HETATM   15  C21 UNL     1      -2.036  54.712 -10.062  1.00  0.00     0.022 C 
HETATM   16  C22 UNL     1      -3.444  54.226 -10.380  1.00  0.00     0.080 C 
HETATM   17  C23 UNL     1      -3.430  53.045 -11.314  1.00  0.00     0.135 C 
HETATM   18  O4  UNL     1      -4.205  53.010 -12.271  1.00  0.00    -0.297 OA
HETATM   19  C24 UNL     1      -2.511  51.870 -10.956  1.00  0.00     0.018 C 
HETATM   20  C25 UNL     1      -3.230  50.982  -9.933  1.00  0.00     0.023 C 
HETATM   21  C26 UNL     1      -2.326  51.022 -12.243  1.00  0.00     0.023 C 
HETATM   22  C27 UNL     1      -1.120  52.432 -10.501  1.00  0.00     0.016 C 
HETATM   23  C28 UNL     1      -0.133  51.348 -10.060  1.00  0.00     0.043 C 
HETATM   24  C29 UNL     1       1.294  51.889 -10.080  1.00  0.00     0.149 C 
ENDROOT
BRANCH   1  25
HETATM   25  C6  UNL     1       5.262  55.948  -7.124  1.00  0.00    -0.011 C 
HETATM   26  C7  UNL     1       5.002  57.455  -7.009  1.00  0.00     0.010 C 
BRANCH  25  27
HETATM   27  C5  UNL     1       6.775  55.622  -7.131  1.00  0.00     0.040 C 
BRANCH  27  28
HETATM   28  C4  UNL     1       7.417  55.386  -5.751  1.00  0.00     0.142 C 
BRANCH  28  29
HETATM   29  C3  UNL     1       8.690  56.136  -5.495  1.00  0.00     0.018 C 
HETATM   30  C2  UNL     1       8.856  57.415  -5.097  1.00  0.00     0.010 C 
HETATM   31  C1  UNL     1       7.765  58.386  -4.760  1.00  0.00     0.055 C 
BRANCH  30  32
HETATM   32  C30 UNL     1      10.259  57.880  -4.963  1.00  0.00     0.171 C 
HETATM   33  O6  UNL     1      11.209  57.223  -4.577  1.00  0.00    -0.646 OA
BRANCH  32  34
HETATM   34  O7  UNL     1      10.412  59.165  -5.322  1.00  0.00    -0.773 OA
HETATM   35  H44 UNL     1      11.369  59.327  -5.197  1.00  0.00     0.167 HD
ENDBRANCH  32  34
ENDBRANCH  30  32
ENDBRANCH  28  29
BRANCH  28  36
HETATM   36  O1  UNL     1       7.679  53.994  -5.590  1.00  0.00    -0.392 OA
HETATM   37  H6  UNL     1       6.824  53.532  -5.595  1.00  0.00     0.210 HD
ENDBRANCH  28  36
ENDBRANCH  27  28
ENDBRANCH  25  27
ENDBRANCH   1  25
BRANCH   3  38
HETATM   38  O2  UNL     1       4.464  52.088 -10.211  1.00  0.00    -0.394 OA
HETATM   39  H17 UNL     1       5.359  51.752 -10.020  1.00  0.00     0.210 HD
ENDBRANCH   3  38
BRANCH  24  40
HETATM   40  O5  UNL     1       2.070  50.968  -9.329  1.00  0.00    -0.391 OA
HETATM   41  H43 UNL     1       2.924  50.902  -9.801  1.00  0.00     0.210 HD
ENDBRANCH  24  40
TORSDOF 9
ENDMDL
