MODEL 1
REMARK minimizedAffinity -8.39990902
REMARK CNNscore 0.429150432
REMARK CNNaffinity 6.28895378
REMARK  10 active torsions:
REMARK  status: ('A' for Active; 'I' for Inactive)
REMARK    1  A    between atoms: C3_3  and  C4_4 
REMARK    2  A    between atoms: C4_4  and  O1_5 
REMARK    3  A    between atoms: O1_5  and  C5_6 
REMARK    4  A    between atoms: C6_8  and  C7_9 
REMARK    5  A    between atoms: C7_9  and  O3_10 
REMARK    6  A    between atoms: C8_11  and  O4_12 
REMARK    7  A    between atoms: C9_13  and  O5_14 
REMARK    8  A    between atoms: C10_15  and  O6_16 
REMARK    9  A    between atoms: C12_20  and  C13_21 
REMARK   10  A    between atoms: C13_21  and  C15_23 
ROOT
HETATM    1  C1  UNL     1      -3.175  -9.674   4.589  1.00  0.00     0.044 C 
HETATM    2  C2  UNL     1      -4.566 -10.211   4.427  1.00  0.00    -0.067 C 
HETATM    3  C3  UNL     1      -5.276 -10.821   5.404  1.00  0.00     0.043 C 
HETATM    4  C11 UNL     1      -6.623 -11.377   5.092  1.00  0.00     0.292 C 
HETATM    5  O7  UNL     1      -7.166 -12.203   5.819  1.00  0.00    -0.260 OA
HETATM    6  O8  UNL     1      -7.221 -10.955   3.946  1.00  0.00    -0.311 OA
HETATM    7  C12 UNL     1      -6.692  -9.814   3.227  1.00  0.00     0.140 C 
HETATM    8  C34 UNL     1      -5.182 -10.002   3.067  1.00  0.00     0.067 C 
ENDROOT
BRANCH   7   9
HETATM    9  C13 UNL     1      -7.473  -9.702   1.874  1.00  0.00     0.016 C 
HETATM   10  C14 UNL     1      -8.969  -9.495   2.116  1.00  0.00     0.013 C 
BRANCH   9  11
HETATM   11  C15 UNL     1      -7.148 -10.938   0.970  1.00  0.00     0.000 C 
HETATM   12  C16 UNL     1      -8.228 -12.033   1.006  1.00  0.00     0.006 C 
HETATM   13  C17 UNL     1      -8.961 -11.906  -0.311  1.00  0.00     0.006 C 
HETATM   14  C18 UNL     1      -7.844 -11.629  -1.324  1.00  0.00    -0.002 C 
HETATM   15  C19 UNL     1      -8.375 -11.077  -2.661  1.00  0.00    -0.004 C 
HETATM   16  C32 UNL     1      -6.817 -10.746  -0.568  1.00  0.00    -0.036 C 
HETATM   17  C20 UNL     1      -7.336 -11.221  -3.787  1.00  0.00     0.006 C 
HETATM   18  C29 UNL     1      -8.921  -9.631  -2.535  1.00  0.00     0.006 C 
HETATM   19  C21 UNL     1      -7.832 -10.672  -5.125  1.00  0.00     0.006 C 
HETATM   20  C22 UNL     1      -8.292  -9.219  -4.967  1.00  0.00     0.001 C 
HETATM   21  C23 UNL     1      -8.636  -8.590  -6.325  1.00  0.00     0.006 C 
HETATM   22  C27 UNL     1      -9.435  -9.089  -3.925  1.00  0.00     0.024 C 
HETATM   23  C24 UNL     1      -8.941  -7.108  -6.140  1.00  0.00     0.008 C 
HETATM   24  C25 UNL     1     -10.081  -6.874  -5.163  1.00  0.00     0.079 C 
HETATM   25  C26 UNL     1      -9.901  -7.621  -3.852  1.00  0.00     0.136 C 
HETATM   26  O9  UNL     1     -10.269  -7.102  -2.798  1.00  0.00    -0.297 OA
HETATM   27  C28 UNL     1     -10.710  -9.871  -4.337  1.00  0.00     0.024 C 
HETATM   28  C30 UNL     1      -7.926  -8.686  -1.828  1.00  0.00     0.007 C 
HETATM   29  C31 UNL     1      -6.712  -9.307  -1.125  1.00  0.00     0.010 C 
HETATM   30  C33 UNL     1      -5.409 -11.381  -0.765  1.00  0.00     0.016 C 
ENDBRANCH   9  11
ENDBRANCH   7   9
BRANCH   3  31
HETATM   31  C4  UNL     1      -4.791 -11.066   6.809  1.00  0.00     0.216 C 
BRANCH  31  32
HETATM   32  O1  UNL     1      -5.900 -10.924   7.700  1.00  0.00    -0.354 OA
BRANCH  32  33
HETATM   33  C5  UNL     1      -5.756  -9.867   8.654  1.00  0.00     0.291 C 
HETATM   34  O2  UNL     1      -7.000  -9.801   9.357  1.00  0.00    -0.348 OA
HETATM   35  C6  UNL     1      -7.041  -8.826  10.405  1.00  0.00     0.179 C 
HETATM   36  C8  UNL     1      -5.994  -9.147  11.476  1.00  0.00     0.180 C 
HETATM   37  C9  UNL     1      -4.622  -9.189  10.813  1.00  0.00     0.183 C 
HETATM   38  C10 UNL     1      -4.585 -10.143   9.623  1.00  0.00     0.204 C 
BRANCH  35  39
HETATM   39  C7  UNL     1      -8.456  -8.834  11.001  1.00  0.00     0.198 C 
BRANCH  39  40
HETATM   40  O3  UNL     1      -8.453  -8.511  12.391  1.00  0.00    -0.398 OA
HETATM   41  H10 UNL     1      -7.520  -8.482  12.691  1.00  0.00     0.209 HD
ENDBRANCH  39  40
ENDBRANCH  35  39
BRANCH  36  42
HETATM   42  O4  UNL     1      -5.961  -8.140  12.494  1.00  0.00    -0.390 OA
HETATM   43  H12 UNL     1      -6.560  -8.422  13.209  1.00  0.00     0.210 HD
ENDBRANCH  36  42
BRANCH  37  44
HETATM   44  O5  UNL     1      -3.630  -9.603  11.765  1.00  0.00    -0.390 OA
HETATM   45  H14 UNL     1      -3.578  -8.884  12.420  1.00  0.00     0.210 HD
ENDBRANCH  37  44
BRANCH  38  46
HETATM   46  O6  UNL     1      -3.310  -9.966   8.983  1.00  0.00    -0.388 OA
HETATM   47  H16 UNL     1      -2.646 -10.165   9.676  1.00  0.00     0.210 HD
ENDBRANCH  38  46
ENDBRANCH  32  33
ENDBRANCH  31  32
ENDBRANCH   3  31
TORSDOF 10
ENDMDL
