MODEL 1
REMARK minimizedAffinity -9.39756012
REMARK  6 active torsions:
REMARK  status: ('A' for Active; 'I' for Inactive)
REMARK    1  A    between atoms: C2_2  and  C30_32 
REMARK    2  A    between atoms: C3_3  and  C4_4 
REMARK    3  A    between atoms: C4_4  and  C5_6 
REMARK    4  A    between atoms: C5_6  and  C6_7 
REMARK    5  A    between atoms: C6_7  and  C8_9 
REMARK    6  A    between atoms: C30_32  and  O4_34 
ROOT
HETATM    1  C8  UNL     1       1.260   7.014  13.277  1.00  0.00    -0.001 C 
HETATM    2  C9  UNL     1       0.471   7.954  14.237  1.00  0.00     0.007 C 
HETATM    3  C10 UNL     1      -1.009   7.535  14.186  1.00  0.00     0.015 C 
HETATM    4  C11 UNL     1      -1.002   6.164  13.481  1.00  0.00    -0.013 C 
HETATM    5  C12 UNL     1      -0.671   5.112  14.585  1.00  0.00     0.021 C 
HETATM    6  C13 UNL     1      -2.286   5.687  12.819  1.00  0.00    -0.070 C 
HETATM    7  C14 UNL     1      -3.509   6.135  13.156  1.00  0.00    -0.022 C 
HETATM    8  C15 UNL     1      -4.751   5.560  12.545  1.00  0.00     0.034 C 
HETATM    9  C16 UNL     1      -4.563   4.043  12.391  1.00  0.00     0.013 C 
HETATM   10  C17 UNL     1      -5.872   3.243  12.105  1.00  0.00     0.018 C 
HETATM   11  C18 UNL     1      -6.650   3.024  13.420  1.00  0.00     0.023 C 
HETATM   12  C19 UNL     1      -6.820   3.948  11.118  1.00  0.00     0.023 C 
HETATM   13  C20 UNL     1      -5.515   1.847  11.577  1.00  0.00     0.135 C 
HETATM   14  O2  UNL     1      -6.320   1.168  10.936  1.00  0.00    -0.297 OA
HETATM   15  C21 UNL     1      -4.170   1.268  11.962  1.00  0.00     0.080 C 
HETATM   16  C22 UNL     1      -2.984   2.222  11.790  1.00  0.00     0.017 C 
HETATM   17  C23 UNL     1      -3.353   3.690  11.451  1.00  0.00    -0.031 C 
HETATM   18  C24 UNL     1      -3.708   3.759   9.941  1.00  0.00     0.016 C 
HETATM   19  C25 UNL     1      -2.139   4.710  11.649  1.00  0.00     0.024 C 
HETATM   20  C26 UNL     1      -0.731   4.078  11.535  1.00  0.00     0.010 C 
HETATM   21  C27 UNL     1       0.465   5.039  11.730  1.00  0.00     0.011 C 
HETATM   22  C28 UNL     1       0.122   6.385  12.406  1.00  0.00    -0.029 C 
HETATM   23  C29 UNL     1      -0.279   7.412  11.299  1.00  0.00     0.016 C 
ENDROOT
BRANCH   1  24
HETATM   24  C6  UNL     1       2.446   7.746  12.585  1.00  0.00    -0.007 C 
HETATM   25  C7  UNL     1       2.965   8.926  13.414  1.00  0.00     0.011 C 
BRANCH  24  26
HETATM   26  C5  UNL     1       2.032   8.271  11.189  1.00  0.00     0.087 C 
BRANCH  26  27
HETATM   27  C4  UNL     1       3.056   7.908  10.128  1.00  0.00     0.150 C 
HETATM   28  O1  UNL     1       4.178   7.500  10.418  1.00  0.00    -0.293 OA
BRANCH  27  29
HETATM   29  C3  UNL     1       2.620   8.011   8.706  1.00  0.00     0.063 C 
HETATM   30  C2  UNL     1       2.468   6.955   7.889  1.00  0.00     0.015 C 
HETATM   31  C1  UNL     1       1.926   7.073   6.500  1.00  0.00     0.055 C 
BRANCH  30  32
HETATM   32  C30 UNL     1       2.808   5.579   8.296  1.00  0.00     0.171 C 
HETATM   33  O3  UNL     1       3.519   4.812   7.675  1.00  0.00    -0.646 OA
BRANCH  32  34
HETATM   34  O4  UNL     1       2.344   5.290   9.524  1.00  0.00    -0.773 OA
HETATM   35  H44 UNL     1       2.585   4.349   9.645  1.00  0.00     0.167 HD
ENDBRANCH  32  34
ENDBRANCH  30  32
ENDBRANCH  27  29
ENDBRANCH  26  27
ENDBRANCH  24  26
ENDBRANCH   1  24
TORSDOF 6
ENDMDL
