MODEL 1
REMARK minimizedAffinity -9.11067104
REMARK CNNscore 0.822830796
REMARK CNNaffinity 7.44686699
REMARK  10 active torsions:
REMARK  status: ('A' for Active; 'I' for Inactive)
REMARK    1  A    between atoms: N1_6  and  O1_8 
REMARK    2  A    between atoms: O1_8  and  C6_9 
REMARK    3  A    between atoms: C6_9  and  C7_10 
REMARK       I    between atoms: C7_10  and  N2_12 
REMARK    4  A    between atoms: N2_12  and  C8_13 
REMARK    5  A    between atoms: C8_13  and  C9_14 
REMARK    6  A    between atoms: C20_27  and  O3_28 
REMARK    7  A    between atoms: C27_35  and  O4_36 
REMARK    8  A    between atoms: C27_35  and  C28_37 
REMARK    9  A    between atoms: C28_37  and  C29_39 
REMARK   10  A    between atoms: C29_39  and  O6_40 
ROOT
HETATM    1  C1  UNL     1      -3.518   4.331  10.472  1.00  0.00     0.020 C 
HETATM    2  C2  UNL     1      -3.453   4.059  11.995  1.00  0.00    -0.014 C 
HETATM    3  C3  UNL     1      -3.421   2.526  12.234  1.00  0.00     0.020 C 
HETATM    4  C4  UNL     1      -4.688   1.821  11.762  1.00  0.00     0.060 C 
HETATM    5  C5  UNL     1      -5.953   2.480  12.280  1.00  0.00     0.032 C 
HETATM    6  N1  UNL     1      -7.035   1.758  12.249  1.00  0.00    -0.271 N 
ATOM      7  H1  UNL     1      -7.070   0.794  11.918  1.00  0.00     0.194 HD
HETATM    8  C14 UNL     1      -5.859   3.889  12.765  1.00  0.00     0.030 C 
HETATM    9  C15 UNL     1      -4.727   4.608  12.649  1.00  0.00    -0.069 C 
HETATM   10  C16 UNL     1      -4.668   5.985  13.274  1.00  0.00     0.035 C 
HETATM   11  C17 UNL     1      -3.644   6.910  12.627  1.00  0.00     0.010 C 
HETATM   12  C18 UNL     1      -2.238   6.289  12.481  1.00  0.00    -0.002 C 
HETATM   13  C19 UNL     1      -2.228   4.749  12.693  1.00  0.00     0.031 C 
HETATM   14  C20 UNL     1      -0.830   4.171  12.385  1.00  0.00     0.124 C 
HETATM   15  C21 UNL     1       0.266   4.875  13.203  1.00  0.00     0.045 C 
HETATM   16  C22 UNL     1       0.256   6.437  13.190  1.00  0.00     0.001 C 
HETATM   17  C23 UNL     1       0.919   6.932  11.890  1.00  0.00     0.019 C 
HETATM   18  C24 UNL     1      -1.179   7.003  13.347  1.00  0.00     0.002 C 
HETATM   19  C25 UNL     1      -1.454   6.995  14.863  1.00  0.00     0.009 C 
HETATM   20  C26 UNL     1      -0.098   6.871  15.561  1.00  0.00     0.047 C 
HETATM   21  C27 UNL     1       0.970   7.009  14.462  1.00  0.00     0.128 C 
ENDROOT
BRANCH   6  22
HETATM   22  O1  UNL     1      -8.148   2.468  12.729  1.00  0.00    -0.271 OA
BRANCH  22  23
HETATM   23  C6  UNL     1      -7.707   3.716  13.237  1.00  0.00     0.303 C 
BRANCH  23  24
HETATM   24  C7  UNL     1      -8.562   4.866  12.706  1.00  0.00     0.244 C 
HETATM   25  O2  UNL     1      -8.611   5.199  11.525  1.00  0.00    -0.271 OA
HETATM   26  N2  UNL     1      -9.292   5.502  13.696  1.00  0.00    -0.355 N 
HETATM   27  H10 UNL     1      -9.085   5.298  14.664  1.00  0.00     0.162 HD
BRANCH  26  28
HETATM   28  C8  UNL     1     -10.109   6.660  13.411  1.00  0.00     0.161 C 
BRANCH  28  29
HETATM   29  C9  UNL     1     -10.322   7.485  14.651  1.00  0.00    -0.038 A 
HETATM   30  C10 UNL     1      -9.342   7.532  15.646  1.00  0.00     0.025 A 
HETATM   31  C11 UNL     1      -9.582   8.289  16.782  1.00  0.00     0.088 A 
HETATM   32  N3  UNL     1     -10.719   8.987  16.991  1.00  0.00    -0.375 N 
HETATM   33  C12 UNL     1     -11.657   8.921  16.023  1.00  0.00     0.088 A 
ATOM     34  H3  UNL     1     -10.861   9.537  17.839  1.00  0.00     0.164 HD
HETATM   35  C13 UNL     1     -11.510   8.191  14.853  1.00  0.00     0.025 A 
ENDBRANCH  28  29
ENDBRANCH  26  28
ENDBRANCH  23  24
ENDBRANCH  22  23
ENDBRANCH   6  22
BRANCH  14  36
HETATM   36  O3  UNL     1      -0.505   4.174  11.004  1.00  0.00    -0.395 OA
HETATM   37  H25 UNL     1      -0.797   5.005  10.599  1.00  0.00     0.210 HD
ENDBRANCH  14  36
BRANCH  21  38
HETATM   38  O4  UNL     1       2.108   6.225  14.807  1.00  0.00    -0.381 OA
HETATM   39  H36 UNL     1       2.269   6.316  15.763  1.00  0.00     0.211 HD
ENDBRANCH  21  38
BRANCH  21  40
HETATM   40  C28 UNL     1       1.384   8.500  14.336  1.00  0.00     0.184 C 
HETATM   41  O5  UNL     1       0.562   9.414  14.201  1.00  0.00    -0.292 OA
BRANCH  40  42
HETATM   42  C29 UNL     1       2.875   8.825  14.384  1.00  0.00     0.245 C 
BRANCH  42  43
HETATM   43  O6  UNL     1       3.393   9.079  13.084  1.00  0.00    -0.393 OA
HETATM   44  H39 UNL     1       2.619   9.240  12.506  1.00  0.00     0.209 HD
ENDBRANCH  42  43
ENDBRANCH  40  42
ENDBRANCH  21  40
TORSDOF 10
ENDMDL
