MODEL 1
REMARK minimizedAffinity -7.0618248
REMARK CNNscore 0.552942216
REMARK CNNaffinity 6.47775269
REMARK  18 active torsions:
REMARK  status: ('A' for Active; 'I' for Inactive)
REMARK    1  A    between atoms: C4_4  and  C5_5 
REMARK    2  A    between atoms: C5_5  and  C6_6 
REMARK    3  A    between atoms: C6_6  and  C7_7 
REMARK    4  A    between atoms: C9_9  and  C10_10 
REMARK    5  A    between atoms: C10_10  and  O1_11 
REMARK    6  A    between atoms: C10_10  and  C11_12 
REMARK    7  A    between atoms: C11_12  and  C12_13 
REMARK    8  A    between atoms: C14_15  and  C15_16 
REMARK    9  A    between atoms: C15_16  and  C16_17 
REMARK   10  A    between atoms: C16_17  and  C17_18 
REMARK   11  A    between atoms: C17_18  and  C18_19 
REMARK   12  A    between atoms: C18_19  and  O2_20 
REMARK   13  A    between atoms: C19_21  and  C20_22 
REMARK   14  A    between atoms: C20_22  and  C21_23 
REMARK   15  A    between atoms: C21_23  and  C22_24 
REMARK   16  A    between atoms: C22_24  and  O3_25 
REMARK   17  A    between atoms: C24_27  and  C26_29 
REMARK   18  A    between atoms: C29_33  and  O5_35 
ROOT
HETATM    1  C17 UNL     1      -5.889  47.695 -30.084  1.00  0.00     0.019 C 
HETATM    2  C19 UNL     1      -5.554  46.602 -31.219  1.00  0.00     0.029 C 
HETATM    3  C23 UNL     1      -6.791  46.171 -32.030  1.00  0.00    -0.066 C 
HETATM    4  C24 UNL     1      -7.119  44.900 -32.390  1.00  0.00    -0.021 C 
HETATM    5  C25 UNL     1      -8.350  44.531 -33.183  1.00  0.00     0.052 C 
HETATM    6  C27 UNL     1      -7.737  47.321 -32.272  1.00  0.00     0.038 C 
HETATM    7  C28 UNL     1      -8.316  47.835 -30.950  1.00  0.00     0.042 C 
HETATM    8  C29 UNL     1      -7.425  47.600 -29.698  1.00  0.00     0.065 C 
HETATM    9  C30 UNL     1      -7.836  46.295 -28.995  1.00  0.00     0.047 C 
ENDROOT
BRANCH   1  10
HETATM   10  C16 UNL     1      -4.943  47.533 -28.824  1.00  0.00     0.019 C 
BRANCH  10  11
HETATM   11  C15 UNL     1      -4.457  48.791 -28.086  1.00  0.00     0.028 C 
BRANCH  11  12
HETATM   12  C14 UNL     1      -4.051  48.462 -26.673  1.00  0.00    -0.024 C 
HETATM   13  C12 UNL     1      -3.133  49.080 -25.903  1.00  0.00    -0.085 C 
HETATM   14  C13 UNL     1      -2.268  50.228 -26.350  1.00  0.00     0.043 C 
BRANCH  13  15
HETATM   15  C11 UNL     1      -2.902  48.616 -24.469  1.00  0.00     0.069 C 
BRANCH  15  16
HETATM   16  C10 UNL     1      -3.049  49.734 -23.412  1.00  0.00     0.145 C 
BRANCH  16  17
HETATM   17  C9  UNL     1      -2.287  49.393 -22.158  1.00  0.00     0.007 C 
HETATM   18  C7  UNL     1      -2.316  48.243 -21.454  1.00  0.00    -0.085 C 
HETATM   19  C8  UNL     1      -3.213  47.079 -21.799  1.00  0.00     0.043 C 
BRANCH  18  20
HETATM   20  C6  UNL     1      -1.465  47.985 -20.213  1.00  0.00     0.037 C 
BRANCH  20  21
HETATM   21  C5  UNL     1      -1.737  48.786 -18.928  1.00  0.00     0.031 C 
BRANCH  21  22
HETATM   22  C4  UNL     1      -1.118  50.161 -18.953  1.00  0.00    -0.024 C 
HETATM   23  C2  UNL     1      -0.198  50.676 -18.112  1.00  0.00    -0.091 C 
HETATM   24  C1  UNL     1       0.437  49.950 -16.959  1.00  0.00     0.042 C 
HETATM   25  C3  UNL     1       0.294  52.089 -18.294  1.00  0.00     0.042 C 
ENDBRANCH  21  22
ENDBRANCH  20  21
ENDBRANCH  18  20
ENDBRANCH  16  17
BRANCH  16  26
HETATM   26  O1  UNL     1      -4.410  49.910 -23.011  1.00  0.00    -0.391 OA
HETATM   27  H17 UNL     1      -4.931  49.172 -23.373  1.00  0.00     0.210 HD
ENDBRANCH  16  26
ENDBRANCH  15  16
ENDBRANCH  13  15
ENDBRANCH  11  12
ENDBRANCH  10  11
ENDBRANCH   1  10
BRANCH   1  28
HETATM   28  C18 UNL     1      -5.604  49.166 -30.590  1.00  0.00     0.177 C 
BRANCH  28  29
HETATM   29  O2  UNL     1      -4.315  49.641 -30.214  1.00  0.00    -0.400 OA
HETATM   30  H30 UNL     1      -4.250  49.520 -29.242  1.00  0.00     0.209 HD
ENDBRANCH  28  29
ENDBRANCH   1  28
BRANCH   2  31
HETATM   31  C20 UNL     1      -4.361  47.040 -32.116  1.00  0.00     0.012 C 
BRANCH  31  32
HETATM   32  C21 UNL     1      -4.530  46.884 -33.629  1.00  0.00     0.027 C 
BRANCH  32  33
HETATM   33  C22 UNL     1      -4.797  48.189 -34.366  1.00  0.00     0.164 C 
BRANCH  33  34
HETATM   34  O3  UNL     1      -5.868  47.973 -35.274  1.00  0.00    -0.401 OA
HETATM   35  H38 UNL     1      -6.027  48.812 -35.741  1.00  0.00     0.209 HD
ENDBRANCH  33  34
ENDBRANCH  32  33
ENDBRANCH  31  32
ENDBRANCH   2  31
BRANCH   8  36
HETATM   36  O5  UNL     1      -7.778  48.661 -28.785  1.00  0.00    -0.389 OA
HETATM   37  H50 UNL     1      -7.528  48.390 -27.882  1.00  0.00     0.210 HD
ENDBRANCH   8  36
BRANCH   4  38
HETATM   38  C26 UNL     1      -6.294  43.704 -32.012  1.00  0.00     0.265 C 
HETATM   39  O4  UNL     1      -6.644  42.899 -31.155  1.00  0.00    -0.302 OA
ENDBRANCH   4  38
TORSDOF 18
ENDMDL
