MODEL 1
REMARK minimizedAffinity -9.65452576
REMARK  4 active torsions:
REMARK  status: ('A' for Active; 'I' for Inactive)
REMARK    1  A    between atoms: C4_4  and  C5_5 
REMARK    2  A    between atoms: C5_5  and  C6_6 
REMARK    3  A    between atoms: C6_6  and  C7_7 
REMARK    4  A    between atoms: C7_7  and  C9_9 
ROOT
HETATM    1  C9  UNL     1      -0.671  52.466 -21.721  1.00  0.00    -0.002 C 
HETATM    2  C10 UNL     1       0.089  52.127 -23.032  1.00  0.00     0.006 C 
HETATM    3  C11 UNL     1      -0.763  51.115 -23.813  1.00  0.00     0.011 C 
HETATM    4  C12 UNL     1      -2.124  51.081 -23.091  1.00  0.00    -0.032 C 
HETATM    5  C13 UNL     1      -2.980  52.248 -23.679  1.00  0.00     0.016 C 
HETATM    6  C14 UNL     1      -2.886  49.736 -23.227  1.00  0.00     0.004 C 
HETATM    7  C15 UNL     1      -3.291  49.405 -24.677  1.00  0.00     0.007 C 
HETATM    8  C16 UNL     1      -4.791  49.302 -24.928  1.00  0.00     0.007 C 
HETATM    9  C17 UNL     1      -5.395  48.240 -23.991  1.00  0.00     0.010 C 
HETATM   10  C18 UNL     1      -6.825  47.754 -24.395  1.00  0.00     0.018 C 
HETATM   11  C19 UNL     1      -7.150  46.416 -23.694  1.00  0.00     0.023 C 
HETATM   12  C20 UNL     1      -6.939  47.494 -25.913  1.00  0.00     0.023 C 
HETATM   13  C21 UNL     1      -7.898  48.776 -24.006  1.00  0.00     0.135 C 
HETATM   14  O1  UNL     1      -8.996  48.814 -24.568  1.00  0.00    -0.297 OA
HETATM   15  C22 UNL     1      -7.582  49.763 -22.910  1.00  0.00     0.080 C 
HETATM   16  C23 UNL     1      -6.635  49.139 -21.908  1.00  0.00     0.018 C 
HETATM   17  C24 UNL     1      -5.302  48.788 -22.553  1.00  0.00    -0.026 A 
HETATM   18  C25 UNL     1      -4.255  48.188 -21.649  1.00  0.00     0.021 A 
HETATM   19  C26 UNL     1      -4.021  49.594 -22.175  1.00  0.00    -0.027 A 
HETATM   20  C27 UNL     1      -4.173  50.731 -21.149  1.00  0.00     0.011 C 
HETATM   21  C28 UNL     1      -2.940  51.566 -20.767  1.00  0.00     0.011 C 
HETATM   22  C29 UNL     1      -1.687  51.284 -21.596  1.00  0.00    -0.032 C 
HETATM   23  C30 UNL     1      -0.972  50.049 -20.970  1.00  0.00     0.016 C 
ENDROOT
BRANCH   1  24
HETATM   24  C7  UNL     1       0.296  52.786 -20.546  1.00  0.00    -0.014 C 
HETATM   25  C8  UNL     1       1.719  53.097 -21.024  1.00  0.00     0.010 C 
BRANCH  24  26
HETATM   26  C6  UNL     1       0.338  51.665 -19.472  1.00  0.00     0.008 C 
BRANCH  26  27
HETATM   27  C5  UNL     1       0.338  52.151 -18.018  1.00  0.00     0.028 C 
BRANCH  27  28
HETATM   28  C4  UNL     1       1.727  52.528 -17.579  1.00  0.00    -0.025 C 
HETATM   29  C2  UNL     1       2.341  52.205 -16.424  1.00  0.00    -0.091 C 
HETATM   30  C1  UNL     1       3.734  52.699 -16.131  1.00  0.00     0.042 C 
HETATM   31  C3  UNL     1       1.750  51.343 -15.342  1.00  0.00     0.042 C 
ENDBRANCH  27  28
ENDBRANCH  26  27
ENDBRANCH  24  26
ENDBRANCH   1  24
TORSDOF 4
ENDMDL
