MODEL 1
REMARK minimizedAffinity -9.47702217
REMARK  8 active torsions:
REMARK  status: ('A' for Active; 'I' for Inactive)
REMARK    1  A    between atoms: C2_2  and  C3_3 
REMARK    2  A    between atoms: C2_2  and  C29_30 
REMARK    3  A    between atoms: C3_3  and  C4_4 
REMARK    4  A    between atoms: C4_4  and  C5_5 
REMARK    5  A    between atoms: C5_5  and  C7_7 
REMARK    6  A    between atoms: C29_30  and  C31_32 
REMARK    7  A    between atoms: C31_32  and  O2_33 
REMARK    8  A    between atoms: O2_33  and  C32_34 
ROOT
HETATM    1  C7  UNL     1      -3.914  48.558 -26.190  1.00  0.00    -0.002 C 
HETATM    2  C8  UNL     1      -2.872  49.380 -26.959  1.00  0.00     0.006 C 
HETATM    3  C9  UNL     1      -3.019  50.807 -26.470  1.00  0.00     0.011 C 
HETATM    4  C10 UNL     1      -3.436  50.738 -24.974  1.00  0.00    -0.032 C 
HETATM    5  C11 UNL     1      -4.559  51.782 -24.769  1.00  0.00     0.016 C 
HETATM    6  C12 UNL     1      -2.185  51.081 -24.070  1.00  0.00     0.004 C 
HETATM    7  C13 UNL     1      -1.737  52.552 -24.108  1.00  0.00     0.007 C 
HETATM    8  C14 UNL     1      -0.485  52.731 -23.257  1.00  0.00     0.007 C 
HETATM    9  C15 UNL     1      -0.754  52.529 -21.750  1.00  0.00     0.010 C 
HETATM   10  C16 UNL     1       0.566  52.601 -20.903  1.00  0.00     0.018 C 
HETATM   11  C17 UNL     1       1.127  54.043 -20.932  1.00  0.00     0.023 C 
HETATM   12  C18 UNL     1       1.673  51.655 -21.406  1.00  0.00     0.023 C 
HETATM   13  C19 UNL     1       0.292  52.259 -19.430  1.00  0.00     0.135 C 
HETATM   14  O1  UNL     1       1.017  52.671 -18.519  1.00  0.00    -0.297 OA
HETATM   15  C20 UNL     1      -0.895  51.395 -19.097  1.00  0.00     0.080 C 
HETATM   16  C21 UNL     1      -1.210  50.469 -20.252  1.00  0.00     0.018 C 
HETATM   17  C22 UNL     1      -1.612  51.268 -21.478  1.00  0.00    -0.026 A 
HETATM   18  C23 UNL     1      -3.111  51.439 -21.641  1.00  0.00     0.021 A 
HETATM   19  C24 UNL     1      -2.369  50.576 -22.638  1.00  0.00    -0.027 A 
HETATM   20  C25 UNL     1      -2.576  49.073 -22.555  1.00  0.00     0.011 C 
HETATM   21  C26 UNL     1      -2.871  48.445 -23.913  1.00  0.00     0.011 C 
HETATM   22  C27 UNL     1      -3.928  49.228 -24.762  1.00  0.00    -0.032 C 
HETATM   23  C28 UNL     1      -5.265  49.109 -24.007  1.00  0.00     0.016 C 
ENDROOT
BRANCH   1  24
HETATM   24  C5  UNL     1      -5.216  48.306 -27.019  1.00  0.00    -0.014 C 
HETATM   25  C6  UNL     1      -6.348  47.556 -26.321  1.00  0.00     0.010 C 
BRANCH  24  26
HETATM   26  C4  UNL     1      -4.891  47.836 -28.467  1.00  0.00     0.009 C 
BRANCH  26  27
HETATM   27  C3  UNL     1      -6.052  47.820 -29.470  1.00  0.00     0.034 C 
BRANCH  27  28
HETATM   28  C2  UNL     1      -6.402  46.414 -29.935  1.00  0.00    -0.083 C 
HETATM   29  C1  UNL     1      -7.040  45.578 -29.096  1.00  0.00     0.015 C 
BRANCH  28  30
HETATM   30  C29 UNL     1      -6.001  46.038 -31.366  1.00  0.00     0.034 C 
HETATM   31  C30 UNL     1      -7.197  45.884 -32.315  1.00  0.00     0.017 C 
BRANCH  30  32
HETATM   32  C31 UNL     1      -5.000  47.049 -31.966  1.00  0.00     0.187 C 
BRANCH  32  33
HETATM   33  O2  UNL     1      -5.599  47.861 -32.993  1.00  0.00    -0.321 OA
BRANCH  33  34
HETATM   34  C32 UNL     1      -4.833  48.074 -34.096  1.00  0.00     0.254 C 
HETATM   35  C33 UNL     1      -3.408  47.715 -33.807  1.00  0.00     0.126 C 
HETATM   36  O3  UNL     1      -5.234  48.498 -35.171  1.00  0.00    -0.266 OA
ENDBRANCH  33  34
ENDBRANCH  32  33
ENDBRANCH  30  32
ENDBRANCH  28  30
ENDBRANCH  27  28
ENDBRANCH  26  27
ENDBRANCH  24  26
ENDBRANCH   1  24
TORSDOF 8
ENDMDL
