MODEL 1
REMARK minimizedAffinity -7.90444279
REMARK CNNscore 0.572890937
REMARK CNNaffinity 6.12340593
REMARK  8 active torsions:
REMARK  status: ('A' for Active; 'I' for Inactive)
REMARK    1  A    between atoms: C2_2  and  C3_3 
REMARK    2  A    between atoms: C2_2  and  C27_30 
REMARK    3  A    between atoms: C3_3  and  C4_4 
REMARK    4  A    between atoms: C4_4  and  C5_5 
REMARK    5  A    between atoms: C5_5  and  C7_7 
REMARK    6  A    between atoms: C26_28  and  O3_29 
REMARK    7  A    between atoms: C27_30  and  C29_32 
REMARK    8  A    between atoms: C29_32  and  O5_34 
ROOT
HETATM    1  C7  UNL     1     -13.720  45.706 -28.027  1.00  0.00    -0.002 C 
HETATM    2  C8  UNL     1     -13.673  47.011 -27.211  1.00  0.00     0.006 C 
HETATM    3  C9  UNL     1     -12.353  47.650 -27.612  1.00  0.00     0.010 C 
HETATM    4  C10 UNL     1     -11.403  46.452 -27.586  1.00  0.00     0.027 C 
HETATM    5  C11 UNL     1     -10.019  46.725 -28.143  1.00  0.00    -0.036 C 
HETATM    6  C12 UNL     1      -9.523  46.150 -29.263  1.00  0.00     0.002 C 
HETATM    7  C13 UNL     1     -10.469  45.357 -30.129  1.00  0.00     0.157 C 
HETATM    8  O1  UNL     1     -10.092  44.846 -31.182  1.00  0.00    -0.293 OA
HETATM    9  C14 UNL     1     -11.935  45.308 -29.770  1.00  0.00     0.093 C 
HETATM   10  C15 UNL     1     -12.209  45.305 -28.257  1.00  0.00    -0.026 C 
HETATM   11  C16 UNL     1     -11.749  43.959 -27.673  1.00  0.00     0.016 C 
HETATM   12  C17 UNL     1      -8.051  46.278 -29.728  1.00  0.00    -0.008 C 
HETATM   13  C18 UNL     1      -7.440  44.849 -29.856  1.00  0.00     0.021 C 
HETATM   14  C19 UNL     1      -8.009  46.979 -31.123  1.00  0.00     0.022 C 
HETATM   15  C20 UNL     1      -7.174  48.248 -31.225  1.00  0.00     0.080 C 
HETATM   16  C21 UNL     1      -5.831  48.107 -30.568  1.00  0.00     0.131 C 
HETATM   17  O2  UNL     1      -4.814  48.553 -31.111  1.00  0.00    -0.298 OA
HETATM   18  C22 UNL     1      -5.771  47.429 -29.208  1.00  0.00     0.056 C 
HETATM   19  C23 UNL     1      -4.948  48.276 -28.237  1.00  0.00     0.018 C 
HETATM   20  C24 UNL     1      -7.168  47.034 -28.663  1.00  0.00     0.012 C 
HETATM   21  C25 UNL     1      -7.945  48.189 -28.012  1.00  0.00     0.042 C 
HETATM   22  C26 UNL     1      -9.188  47.661 -27.300  1.00  0.00     0.148 C 
ENDROOT
BRANCH   1  23
HETATM   23  C5  UNL     1     -14.792  44.705 -27.510  1.00  0.00    -0.014 C 
HETATM   24  C6  UNL     1     -16.123  44.732 -28.264  1.00  0.00     0.010 C 
BRANCH  23  25
HETATM   25  C4  UNL     1     -14.985  44.834 -25.976  1.00  0.00     0.009 C 
BRANCH  25  26
HETATM   26  C3  UNL     1     -16.456  44.869 -25.511  1.00  0.00     0.034 C 
BRANCH  26  27
HETATM   27  C2  UNL     1     -16.867  45.915 -24.490  1.00  0.00    -0.075 C 
HETATM   28  C1  UNL     1     -16.013  46.861 -24.057  1.00  0.00     0.015 C 
BRANCH  27  29
HETATM   29  C27 UNL     1     -18.279  45.826 -23.908  1.00  0.00     0.107 C 
HETATM   30  C28 UNL     1     -18.330  46.234 -22.436  1.00  0.00     0.026 C 
BRANCH  29  31
HETATM   31  C29 UNL     1     -19.300  46.626 -24.717  1.00  0.00     0.147 C 
HETATM   32  O4  UNL     1     -20.320  46.229 -25.254  1.00  0.00    -0.650 OA
BRANCH  31  33
HETATM   33  O5  UNL     1     -18.964  47.933 -24.813  1.00  0.00    -0.776 OA
HETATM   34  H42 UNL     1     -19.694  48.319 -25.342  1.00  0.00     0.167 HD
ENDBRANCH  31  33
ENDBRANCH  29  31
ENDBRANCH  27  29
ENDBRANCH  26  27
ENDBRANCH  25  26
ENDBRANCH  23  25
ENDBRANCH   1  23
BRANCH  22  35
HETATM   35  O3  UNL     1      -8.819  46.957 -26.119  1.00  0.00    -0.391 OA
HETATM   36  H37 UNL     1      -8.378  47.587 -25.525  1.00  0.00     0.210 HD
ENDBRANCH  22  35
TORSDOF 8
ENDMDL
