MODEL 1
REMARK minimizedAffinity -9.25531006
REMARK  6 active torsions:
REMARK  status: ('A' for Active; 'I' for Inactive)
REMARK    1  A    between atoms: C2_2  and  C30_31 
REMARK    2  A    between atoms: C3_3  and  C4_4 
REMARK    3  A    between atoms: C4_4  and  C5_5 
REMARK    4  A    between atoms: C5_5  and  C6_6 
REMARK    5  A    between atoms: C6_6  and  C8_8 
REMARK    6  A    between atoms: C30_31  and  O3_33 
ROOT
HETATM    1  C8  UNL     1      -2.194   6.855  12.587  1.00  0.00    -0.002 C 
HETATM    2  C9  UNL     1      -2.210   8.403  12.486  1.00  0.00     0.007 C 
HETATM    3  C10 UNL     1      -0.751   8.860  12.425  1.00  0.00     0.015 C 
HETATM    4  C11 UNL     1       0.026   7.805  13.246  1.00  0.00    -0.013 C 
HETATM    5  C12 UNL     1      -0.246   8.114  14.745  1.00  0.00     0.021 C 
HETATM    6  C13 UNL     1       1.545   7.780  12.941  1.00  0.00    -0.070 C 
HETATM    7  C14 UNL     1       2.503   7.896  13.881  1.00  0.00    -0.022 C 
HETATM    8  C15 UNL     1       3.971   7.737  13.649  1.00  0.00     0.034 C 
HETATM    9  C16 UNL     1       4.373   7.117  12.285  1.00  0.00     0.013 C 
HETATM   10  C17 UNL     1       5.916   7.256  12.000  1.00  0.00     0.018 C 
HETATM   11  C18 UNL     1       6.441   6.014  11.240  1.00  0.00     0.023 C 
HETATM   12  C19 UNL     1       6.779   7.360  13.278  1.00  0.00     0.023 C 
HETATM   13  C20 UNL     1       6.203   8.509  11.162  1.00  0.00     0.135 C 
HETATM   14  O1  UNL     1       7.266   8.646  10.547  1.00  0.00    -0.297 OA
HETATM   15  C21 UNL     1       5.208   9.647  11.207  1.00  0.00     0.080 C 
HETATM   16  C22 UNL     1       3.745   9.234  11.045  1.00  0.00     0.017 C 
HETATM   17  C23 UNL     1       3.467   7.705  11.156  1.00  0.00    -0.031 C 
HETATM   18  C24 UNL     1       3.752   7.092   9.762  1.00  0.00     0.016 C 
HETATM   19  C25 UNL     1       1.936   7.479  11.498  1.00  0.00     0.024 C 
HETATM   20  C26 UNL     1       1.392   6.069  11.207  1.00  0.00     0.010 C 
HETATM   21  C27 UNL     1      -0.133   6.042  11.361  1.00  0.00     0.011 C 
HETATM   22  C28 UNL     1      -0.671   6.463  12.782  1.00  0.00    -0.029 C 
HETATM   23  C29 UNL     1      -0.370   5.282  13.715  1.00  0.00     0.016 C 
ENDROOT
BRANCH   1  24
HETATM   24  C6  UNL     1      -3.401   6.259  13.386  1.00  0.00    -0.014 C 
HETATM   25  C7  UNL     1      -4.613   7.196  13.455  1.00  0.00     0.010 C 
BRANCH  24  26
HETATM   26  C5  UNL     1      -3.810   4.772  13.219  1.00  0.00     0.008 C 
BRANCH  26  27
HETATM   27  C4  UNL     1      -3.936   4.206  11.803  1.00  0.00     0.028 C 
BRANCH  27  28
HETATM   28  C3  UNL     1      -2.654   3.538  11.376  1.00  0.00    -0.013 C 
HETATM   29  C2  UNL     1      -2.398   2.216  11.313  1.00  0.00     0.008 C 
HETATM   30  C1  UNL     1      -3.335   1.118  11.716  1.00  0.00     0.055 C 
BRANCH  29  31
HETATM   31  C30 UNL     1      -1.054   1.829  10.808  1.00  0.00     0.171 C 
HETATM   32  O2  UNL     1       0.024   2.172  11.260  1.00  0.00    -0.646 OA
BRANCH  31  33
HETATM   33  O3  UNL     1      -1.126   1.024   9.733  1.00  0.00    -0.773 OA
HETATM   34  H46 UNL     1      -0.186   0.861   9.511  1.00  0.00     0.167 HD
ENDBRANCH  31  33
ENDBRANCH  29  31
ENDBRANCH  27  28
ENDBRANCH  26  27
ENDBRANCH  24  26
ENDBRANCH   1  24
TORSDOF 6
ENDMDL
