MODEL 1
REMARK minimizedAffinity -7.78706884
REMARK  7 active torsions:
REMARK  status: ('A' for Active; 'I' for Inactive)
REMARK       I    between atoms: C1_2  and  N1_3 
REMARK    1  A    between atoms: C1_2  and  C8_12 
REMARK    2  A    between atoms: N1_3  and  C2_4 
REMARK    3  A    between atoms: C2_4  and  C3_5 
REMARK    4  A    between atoms: C14_19  and  C15_20 
REMARK    5  A    between atoms: C15_20  and  N4_21 
REMARK    6  A    between atoms: C17_23  and  C18_24 
REMARK    7  A    between atoms: C18_24  and  C19_25 
ROOT
HETATM    1  C8  UNL     1      13.103  34.250  19.527  1.00  0.00     0.110 C 
HETATM    2  C9  UNL     1      13.003  35.473  18.598  1.00  0.00     0.287 C 
HETATM    3  N3  UNL     1      14.349  36.065  18.354  1.00  0.00     0.095 N 
HETATM    4  C10 UNL     1      14.828  36.642  19.629  1.00  0.00     0.273 C 
HETATM    5  C11 UNL     1      14.883  35.592  20.747  1.00  0.00     0.036 C 
HETATM    6  C12 UNL     1      14.506  34.215  20.175  1.00  0.00     0.004 C 
HETATM    7  C13 UNL     1      15.517  33.957  19.036  1.00  0.00     0.043 C 
HETATM    8  C14 UNL     1      15.260  34.969  17.886  1.00  0.00     0.242 C 
ENDROOT
BRANCH   8   9
HETATM    9  C15 UNL     1      16.584  35.467  17.278  1.00  0.00     0.181 C 
BRANCH   9  10
HETATM   10  N4  UNL     1      16.572  35.461  15.832  1.00  0.00    -0.283 N 
HETATM   11  C16 UNL     1      17.626  35.332  14.980  1.00  0.00     0.134 A 
HETATM   12  C17 UNL     1      17.047  35.358  13.731  1.00  0.00     0.041 A 
HETATM   13  N5  UNL     1      15.690  35.486  13.869  1.00  0.00    -0.287 N 
HETATM   14  N6  UNL     1      15.408  35.540  15.164  1.00  0.00    -0.020 NA
ATOM     15  H5  UNL     1      15.013  35.533  13.108  1.00  0.00     0.184 HD
BRANCH  12  16
HETATM   16  C18 UNL     1      17.679  35.275  12.388  1.00  0.00     0.064 C 
BRANCH  16  17
HETATM   17  C19 UNL     1      17.511  33.897  11.719  1.00  0.00    -0.009 C 
HETATM   18  C20 UNL     1      17.523  32.791  12.787  1.00  0.00     0.005 C 
HETATM   19  C21 UNL     1      17.402  31.400  12.169  1.00  0.00     0.000 C 
HETATM   20  C22 UNL     1      18.484  31.154  11.125  1.00  0.00     0.000 C 
HETATM   21  C23 UNL     1      18.484  32.242  10.055  1.00  0.00     0.000 C 
HETATM   22  C24 UNL     1      18.603  33.637  10.666  1.00  0.00     0.005 C 
ENDBRANCH  16  17
ENDBRANCH  12  16
ENDBRANCH   9  10
ENDBRANCH   8   9
BRANCH   1  23
HETATM   23  C1  UNL     1      11.955  34.124  20.523  1.00  0.00     0.224 C 
HETATM   24  O1  UNL     1      11.786  33.086  21.160  1.00  0.00    -0.273 OA
HETATM   25  N1  UNL     1      11.160  35.229  20.699  1.00  0.00    -0.356 N 
HETATM   26  H1  UNL     1      11.212  35.990  20.038  1.00  0.00     0.162 HD
BRANCH  25  27
HETATM   27  C2  UNL     1       9.986  35.185  21.544  1.00  0.00     0.162 C 
BRANCH  27  28
HETATM   28  C3  UNL     1       8.733  35.231  20.720  1.00  0.00    -0.025 A 
HETATM   29  C4  UNL     1       8.606  36.084  19.620  1.00  0.00     0.011 A 
HETATM   30  C5  UNL     1       7.431  36.077  18.873  1.00  0.00     0.018 A 
HETATM   31  C6  UNL     1       6.422  35.208  19.248  1.00  0.00     0.087 A 
HETATM   32  N2  UNL     1       6.511  34.361  20.295  1.00  0.00    -0.375 N 
HETATM   33  C7  UNL     1       7.662  34.389  21.005  1.00  0.00     0.096 A 
ATOM     34  H2  UNL     1       5.747  33.730  20.539  1.00  0.00     0.164 HD
ENDBRANCH  27  28
ENDBRANCH  25  27
ENDBRANCH   1  23
TORSDOF 7
ENDMDL
