MODEL 1
REMARK minimizedAffinity -8.29471207
REMARK CNNscore 0.793194473
REMARK CNNaffinity 5.8140626
REMARK  5 active torsions:
REMARK  status: ('A' for Active; 'I' for Inactive)
REMARK    1  A    between atoms: C4_4  and  O1_5 
REMARK    2  A    between atoms: C5_6  and  O2_7 
REMARK    3  A    between atoms: C8_11  and  C9_12 
REMARK    4  A    between atoms: C19_23  and  C20_24 
REMARK    5  A    between atoms: C26_32  and  O7_33 
ROOT
HETATM    1  C1  UNL     1     -23.164  41.672 -19.497  1.00  0.00     0.040 C 
HETATM    2  C2  UNL     1     -22.295  41.620 -20.746  1.00  0.00     0.123 C 
HETATM    3  C3  UNL     1     -21.160  40.597 -20.592  1.00  0.00     0.069 C 
HETATM    4  C4  UNL     1     -19.916  41.010 -21.387  1.00  0.00     0.188 C 
HETATM    5  C5  UNL     1     -20.307  41.771 -22.680  1.00  0.00     0.240 C 
HETATM    6  O3  UNL     1     -19.142  41.978 -23.476  1.00  0.00    -0.341 OA
HETATM    7  C6  UNL     1     -18.984  43.318 -23.938  1.00  0.00     0.156 C 
HETATM    8  C7  UNL     1     -17.597  43.400 -24.586  1.00  0.00     0.056 C 
HETATM    9  C8  UNL     1     -17.210  44.817 -25.072  1.00  0.00     0.043 C 
HETATM   10  C10 UNL     1     -17.464  45.818 -23.946  1.00  0.00    -0.065 C 
HETATM   11  C11 UNL     1     -16.581  46.778 -23.621  1.00  0.00    -0.022 C 
HETATM   12  C12 UNL     1     -15.288  47.014 -24.337  1.00  0.00     0.035 C 
HETATM   13  C13 UNL     1     -15.160  46.267 -25.685  1.00  0.00     0.030 C 
HETATM   14  C14 UNL     1     -15.698  44.822 -25.529  1.00  0.00     0.012 C 
HETATM   15  C15 UNL     1     -15.439  43.977 -26.791  1.00  0.00     0.007 C 
HETATM   16  C16 UNL     1     -13.980  44.020 -27.226  1.00  0.00     0.013 C 
HETATM   17  C17 UNL     1     -13.462  45.460 -27.499  1.00  0.00    -0.005 C 
HETATM   18  C18 UNL     1     -14.146  45.998 -28.774  1.00  0.00     0.019 C 
HETATM   19  C19 UNL     1     -11.889  45.396 -27.603  1.00  0.00     0.028 C 
HETATM   20  C24 UNL     1     -11.371  45.782 -26.196  1.00  0.00     0.013 C 
HETATM   21  C25 UNL     1     -12.595  45.945 -25.299  1.00  0.00     0.040 C 
HETATM   22  C26 UNL     1     -13.718  46.364 -26.258  1.00  0.00     0.070 C 
HETATM   23  C27 UNL     1     -18.782  45.715 -23.213  1.00  0.00     0.069 C 
HETATM   24  C28 UNL     1     -19.121  44.291 -22.770  1.00  0.00     0.158 C 
HETATM   25  O8  UNL     1     -20.462  44.309 -22.281  1.00  0.00    -0.347 OA
HETATM   26  C29 UNL     1     -21.141  43.052 -22.270  1.00  0.00     0.325 C 
HETATM   27  O9  UNL     1     -21.743  42.917 -20.964  1.00  0.00    -0.351 OA
ENDROOT
BRANCH  19  28
HETATM   28  C20 UNL     1     -11.234  46.179 -28.710  1.00  0.00    -0.045 A 
HETATM   29  C21 UNL     1     -10.825  47.448 -28.719  1.00  0.00     0.087 A 
HETATM   30  C22 UNL     1     -10.265  47.710 -30.042  1.00  0.00     0.283 A 
HETATM   31  O5  UNL     1      -9.797  48.774 -30.404  1.00  0.00    -0.260 OA
HETATM   32  O6  UNL     1     -10.342  46.577 -30.792  1.00  0.00    -0.314 OA
HETATM   33  C23 UNL     1     -10.958  45.548 -30.022  1.00  0.00     0.213 A 
ENDBRANCH  19  28
BRANCH  22  34
HETATM   34  O7  UNL     1     -13.472  47.727 -26.631  1.00  0.00    -0.389 OA
HETATM   35  H34 UNL     1     -13.475  48.278 -25.831  1.00  0.00     0.210 HD
ENDBRANCH  22  34
BRANCH   9  36
HETATM   36  C9  UNL     1     -18.117  45.166 -26.272  1.00  0.00     0.245 C 
HETATM   37  O4  UNL     1     -19.066  45.945 -26.248  1.00  0.00    -0.306 OA
ENDBRANCH   9  36
BRANCH   5  38
HETATM   38  O2  UNL     1     -21.137  40.881 -23.449  1.00  0.00    -0.360 OA
HETATM   39  H9  UNL     1     -21.317  41.343 -24.282  1.00  0.00     0.213 HD
ENDBRANCH   5  38
BRANCH   4  40
HETATM   40  O1  UNL     1     -19.066  41.804 -20.538  1.00  0.00    -0.390 OA
HETATM   41  H8  UNL     1     -19.623  42.509 -20.154  1.00  0.00     0.210 HD
ENDBRANCH   4  40
TORSDOF 5
ENDMDL
