MODEL 1
REMARK minimizedAffinity -7.02998304
REMARK CNNscore 0.544915855
REMARK CNNaffinity 5.96765327
REMARK  5 active torsions:
REMARK  status: ('A' for Active; 'I' for Inactive)
REMARK    1  A    between atoms: C2_2  and  C3_3 
REMARK    2  A    between atoms: C6_6  and  C7_7 
REMARK    3  A    between atoms: C7_7  and  O1_8 
REMARK    4  A    between atoms: C7_7  and  C8_9 
REMARK    5  A    between atoms: C26_32  and  O6_33 
ROOT
HETATM    1  C3  UNL     1     -19.074  14.531   1.689  1.00  0.00     0.008 C 
HETATM    2  C4  UNL     1     -18.882  13.113   1.176  1.00  0.00    -0.023 C 
HETATM    3  C5  UNL     1     -19.062  12.669  -0.080  1.00  0.00     0.005 C 
HETATM    4  C6  UNL     1     -18.875  11.235  -0.522  1.00  0.00     0.187 C 
HETATM    5  O2  UNL     1     -17.962  11.279  -1.649  1.00  0.00    -0.308 OA
HETATM    6  C12 UNL     1     -16.650  11.037  -1.387  1.00  0.00     0.276 C 
HETATM    7  O3  UNL     1     -16.218  10.553  -0.346  1.00  0.00    -0.264 OA
HETATM    8  C13 UNL     1     -15.739  11.403  -2.599  1.00  0.00     0.095 C 
HETATM    9  C14 UNL     1     -16.469  12.225  -3.680  1.00  0.00     0.036 C 
HETATM   10  C15 UNL     1     -15.412  10.053  -3.207  1.00  0.00     0.003 C 
HETATM   11  C16 UNL     1     -14.307   9.624  -3.824  1.00  0.00     0.072 C 
HETATM   12  C17 UNL     1     -13.059  10.344  -4.111  1.00  0.00     0.245 C 
HETATM   13  O4  UNL     1     -12.306   9.890  -4.971  1.00  0.00    -0.268 OA
HETATM   14  N1  UNL     1     -12.689  11.431  -3.399  1.00  0.00    -0.320 N 
HETATM   15  C18 UNL     1     -13.270  12.183  -2.410  1.00  0.00     0.098 C 
HETATM   16  C19 UNL     1     -14.563  12.201  -2.042  1.00  0.00     0.045 C 
HETATM   17  C20 UNL     1     -14.951  13.215  -1.005  1.00  0.00     0.194 C 
HETATM   18  O5  UNL     1     -16.069  13.711  -0.990  1.00  0.00    -0.287 OA
HETATM   19  C21 UNL     1     -13.949  13.657  -0.033  1.00  0.00     0.046 A 
HETATM   20  C22 UNL     1     -12.626  13.677  -0.447  1.00  0.00     0.032 A 
HETATM   21  C23 UNL     1     -11.625  14.195   0.385  1.00  0.00     0.026 A 
HETATM   22  C24 UNL     1     -11.940  14.656   1.671  1.00  0.00    -0.027 A 
HETATM   23  C25 UNL     1     -10.852  15.149   2.579  1.00  0.00     0.051 C 
HETATM   24  C26 UNL     1     -13.266  14.556   2.111  1.00  0.00     0.086 A 
HETATM   25  C27 UNL     1     -14.276  14.099   1.252  1.00  0.00     0.059 A 
HETATM   26  C28 UNL     1     -15.636  13.970   1.798  1.00  0.00     0.163 C 
HETATM   27  O7  UNL     1     -15.897  12.922   2.379  1.00  0.00    -0.292 OA
HETATM   28  C29 UNL     1     -16.540  15.188   1.730  1.00  0.00     0.084 C 
HETATM   29  C30 UNL     1     -17.851  15.012   2.508  1.00  0.00     0.016 C 
HETATM   30  C31 UNL     1     -12.277  13.108  -1.755  1.00  0.00     0.210 C 
HETATM   31  O8  UNL     1     -11.180  13.314  -2.261  1.00  0.00    -0.285 OA
HETATM   32  H24 UNL     1     -11.729  11.705  -3.622  1.00  0.00     0.169 HD
ENDROOT
BRANCH   4  33
HETATM   33  C7  UNL     1     -20.200  10.614  -1.050  1.00  0.00     0.174 C 
BRANCH  33  34
HETATM   34  O1  UNL     1     -20.005  10.037  -2.344  1.00  0.00    -0.389 OA
HETATM   35  H11 UNL     1     -19.495  10.689  -2.855  1.00  0.00     0.210 HD
ENDBRANCH  33  34
BRANCH  33  36
HETATM   36  C8  UNL     1     -20.819   9.608  -0.109  1.00  0.00     0.009 C 
HETATM   37  C9  UNL     1     -21.489   8.466  -0.370  1.00  0.00    -0.089 C 
HETATM   38  C10 UNL     1     -22.086   7.654   0.750  1.00  0.00     0.042 C 
HETATM   39  C11 UNL     1     -21.698   7.886  -1.740  1.00  0.00     0.042 C 
ENDBRANCH  33  36
ENDBRANCH   4  33
BRANCH   1  40
HETATM   40  C2  UNL     1     -19.533  15.543   0.610  1.00  0.00     0.004 C 
HETATM   41  C1  UNL     1     -18.487  15.840  -0.456  1.00  0.00     0.006 C 
ENDBRANCH   1  40
BRANCH  24  42
HETATM   42  O6  UNL     1     -13.539  14.883   3.412  1.00  0.00    -0.359 OA
HETATM   43  H29 UNL     1     -14.133  14.196   3.774  1.00  0.00     0.217 HD
ENDBRANCH  24  42
TORSDOF 5
ENDMDL
