MODEL 1
REMARK minimizedAffinity -9.21231461
REMARK  8 active torsions:
REMARK  status: ('A' for Active; 'I' for Inactive)
REMARK    1  A    between atoms: C2_2  and  C3_3 
REMARK    2  A    between atoms: C2_2  and  C9_11 
REMARK    3  A    between atoms: C3_3  and  C4_4 
REMARK    4  A    between atoms: C4_4  and  C5_5 
REMARK    5  A    between atoms: C6_6  and  C7_7 
REMARK    6  A    between atoms: C6_6  and  C8_9 
REMARK    7  A    between atoms: C7_7  and  O1_8 
REMARK    8  A    between atoms: C8_9  and  O2_10 
ROOT
HETATM    1  C9  UNL     1      -7.109   5.527  14.423  1.00  0.00     0.018 C 
HETATM    2  C10 UNL     1      -7.253   6.886  15.152  1.00  0.00     0.010 C 
HETATM    3  C11 UNL     1      -5.811   7.359  15.430  1.00  0.00     0.011 C 
HETATM    4  C12 UNL     1      -5.004   6.865  14.205  1.00  0.00    -0.032 C 
HETATM    5  C13 UNL     1      -5.387   7.802  13.017  1.00  0.00     0.016 C 
HETATM    6  C14 UNL     1      -5.604   5.439  14.062  1.00  0.00     0.002 C 
HETATM    7  C15 UNL     1      -5.121   4.719  12.815  1.00  0.00     0.006 C 
HETATM    8  C16 UNL     1      -3.583   4.610  12.842  1.00  0.00     0.006 C 
HETATM    9  C17 UNL     1      -2.868   5.974  13.067  1.00  0.00     0.003 C 
HETATM   10  C18 UNL     1      -1.292   5.934  12.866  1.00  0.00    -0.035 C 
HETATM   11  C19 UNL     1      -0.601   4.918  13.803  1.00  0.00     0.016 C 
HETATM   12  C20 UNL     1      -0.999   5.458  11.400  1.00  0.00     0.017 C 
HETATM   13  C21 UNL     1       0.238   6.057  10.739  1.00  0.00     0.080 C 
HETATM   14  C22 UNL     1       1.272   6.494  11.743  1.00  0.00     0.135 C 
HETATM   15  O3  UNL     1       2.433   6.093  11.663  1.00  0.00    -0.297 OA
HETATM   16  C23 UNL     1       0.825   7.523  12.789  1.00  0.00     0.017 C 
HETATM   17  C24 UNL     1       1.679   7.354  14.060  1.00  0.00     0.023 C 
HETATM   18  C25 UNL     1       1.144   8.914  12.199  1.00  0.00     0.023 C 
HETATM   19  C26 UNL     1      -0.724   7.391  13.027  1.00  0.00     0.009 C 
HETATM   20  C27 UNL     1      -1.199   8.079  14.322  1.00  0.00     0.007 C 
HETATM   21  C28 UNL     1      -2.727   8.128  14.420  1.00  0.00     0.011 C 
HETATM   22  C29 UNL     1      -3.407   6.735  14.352  1.00  0.00    -0.032 C 
HETATM   23  C30 UNL     1      -3.042   5.988  15.667  1.00  0.00     0.016 C 
ENDROOT
BRANCH   1  24
HETATM   24  C2  UNL     1      -8.148   5.163  13.365  1.00  0.00    -0.084 C 
HETATM   25  C1  UNL     1      -8.146   3.909  12.873  1.00  0.00     0.014 C 
BRANCH  24  26
HETATM   26  C3  UNL     1      -9.124   6.236  12.899  1.00  0.00     0.037 C 
BRANCH  26  27
HETATM   27  C4  UNL     1     -10.348   6.582  13.773  1.00  0.00     0.032 C 
BRANCH  27  28
HETATM   28  C5  UNL     1     -10.896   7.959  13.487  1.00  0.00    -0.019 C 
HETATM   29  C6  UNL     1     -12.151   8.291  13.116  1.00  0.00    -0.037 C 
BRANCH  29  30
HETATM   30  C7  UNL     1     -12.507   9.727  12.828  1.00  0.00     0.200 C 
BRANCH  30  31
HETATM   31  O1  UNL     1     -12.379   9.947  11.427  1.00  0.00    -0.397 OA
HETATM   32  H10 UNL     1     -12.471  10.906  11.291  1.00  0.00     0.209 HD
ENDBRANCH  30  31
ENDBRANCH  29  30
BRANCH  29  33
HETATM   33  C8  UNL     1     -13.295   7.323  12.963  1.00  0.00     0.200 C 
BRANCH  33  34
HETATM   34  O2  UNL     1     -14.380   7.964  12.309  1.00  0.00    -0.397 OA
HETATM   35  H13 UNL     1     -14.404   8.874  12.671  1.00  0.00     0.209 HD
ENDBRANCH  33  34
ENDBRANCH  29  33
ENDBRANCH  27  28
ENDBRANCH  26  27
ENDBRANCH  24  26
ENDBRANCH   1  24
TORSDOF 8
ENDMDL
