MODEL 1
REMARK minimizedAffinity -9.39531517
REMARK  8 active torsions:
REMARK  status: ('A' for Active; 'I' for Inactive)
REMARK    1  A    between atoms: C12_14  and  C13_15 
REMARK    2  A    between atoms: C13_15  and  C15_17 
REMARK    3  A    between atoms: C15_17  and  C16_18 
REMARK    4  A    between atoms: C16_18  and  C17_19 
REMARK    5  A    between atoms: C26_28  and  C27_29 
REMARK    6  A    between atoms: C27_29  and  C28_30 
REMARK    7  A    between atoms: C28_30  and  C29_31 
REMARK    8  A    between atoms: C29_31  and  O4_33 
ROOT
HETATM    1  C1  UNL     1       2.148   7.784   9.995  1.00  0.00     0.025 C 
HETATM    2  C2  UNL     1       0.975   8.077  10.570  1.00  0.00     0.015 C 
HETATM    3  C3  UNL     1      -0.177   8.492   9.739  1.00  0.00     0.289 C 
HETATM    4  O1  UNL     1      -0.301   8.335   8.539  1.00  0.00    -0.260 OA
HETATM    5  O2  UNL     1      -1.076   9.096  10.556  1.00  0.00    -0.311 OA
HETATM    6  C4  UNL     1      -0.512   9.244  11.867  1.00  0.00     0.142 C 
HETATM    7  C5  UNL     1      -1.615   9.152  12.907  1.00  0.00     0.039 C 
HETATM    8  C6  UNL     1      -2.319   7.790  12.850  1.00  0.00     0.006 C 
HETATM    9  C7  UNL     1      -1.308   6.661  13.170  1.00  0.00    -0.027 A 
HETATM   10  C8  UNL     1      -1.617   5.804  14.411  1.00  0.00     0.011 C 
HETATM   11  C9  UNL     1      -3.090   5.445  14.681  1.00  0.00     0.011 C 
HETATM   12  C10 UNL     1      -4.095   6.228  13.832  1.00  0.00    -0.032 C 
HETATM   13  C11 UNL     1      -4.219   5.523  12.456  1.00  0.00     0.016 C 
HETATM   14  C12 UNL     1      -5.504   6.410  14.477  1.00  0.00    -0.002 C 
HETATM   15  C21 UNL     1      -6.050   7.697  13.814  1.00  0.00     0.006 C 
HETATM   16  C22 UNL     1      -4.849   8.390  13.132  1.00  0.00     0.011 C 
HETATM   17  C23 UNL     1      -3.599   7.717  13.737  1.00  0.00    -0.032 C 
HETATM   18  C24 UNL     1      -3.342   8.416  15.114  1.00  0.00     0.016 C 
HETATM   19  C25 UNL     1      -0.690   5.905  12.011  1.00  0.00     0.022 A 
HETATM   20  C26 UNL     1       0.186   6.893  12.743  1.00  0.00    -0.021 A 
HETATM   21  C30 UNL     1       0.592   8.199  12.011  1.00  0.00     0.063 C 
ENDROOT
BRANCH  14  22
HETATM   22  C13 UNL     1      -6.487   5.222  14.681  1.00  0.00    -0.014 C 
HETATM   23  C14 UNL     1      -7.200   5.380  16.038  1.00  0.00     0.010 C 
BRANCH  22  24
HETATM   24  C15 UNL     1      -7.493   4.786  13.587  1.00  0.00     0.008 C 
BRANCH  24  25
HETATM   25  C16 UNL     1      -7.308   3.471  12.817  1.00  0.00     0.028 C 
BRANCH  25  26
HETATM   26  C17 UNL     1      -5.876   3.129  12.510  1.00  0.00    -0.025 C 
HETATM   27  C18 UNL     1      -5.408   2.106  11.768  1.00  0.00    -0.091 C 
HETATM   28  C19 UNL     1      -3.924   1.910  11.589  1.00  0.00     0.042 C 
HETATM   29  C20 UNL     1      -6.253   1.092  11.048  1.00  0.00     0.042 C 
ENDBRANCH  25  26
ENDBRANCH  24  25
ENDBRANCH  22  24
ENDBRANCH  14  22
BRANCH  20  30
HETATM   30  C27 UNL     1       1.250   6.369  13.726  1.00  0.00     0.021 C 
BRANCH  30  31
HETATM   31  C28 UNL     1       2.260   7.379  14.252  1.00  0.00     0.111 C 
BRANCH  31  32
HETATM   32  C29 UNL     1       2.488   7.277  15.736  1.00  0.00     0.139 C 
HETATM   33  O3  UNL     1       1.828   7.779  16.628  1.00  0.00    -0.650 OA
BRANCH  32  34
HETATM   34  O4  UNL     1       3.608   6.582  16.023  1.00  0.00    -0.776 OA
HETATM   35  H43 UNL     1       3.654   6.605  17.003  1.00  0.00     0.167 HD
ENDBRANCH  32  34
ENDBRANCH  31  32
ENDBRANCH  30  31
ENDBRANCH  20  30
TORSDOF 8
ENDMDL
