MODEL 1
REMARK minimizedAffinity -7.29562759
REMARK CNNscore 0.62128222
REMARK CNNaffinity 6.36698771
REMARK  14 active torsions:
REMARK  status: ('A' for Active; 'I' for Inactive)
REMARK    1  A    between atoms: O1_2  and  C2_3 
REMARK    2  A    between atoms: C8_9  and  O2_10 
REMARK    3  A    between atoms: O2_10  and  C9_11 
REMARK    4  A    between atoms: C10_13  and  C11_14 
REMARK    5  A    between atoms: C11_14  and  O4_15 
REMARK    6  A    between atoms: C12_16  and  O5_17 
REMARK    7  A    between atoms: C13_18  and  O6_19 
REMARK    8  A    between atoms: C14_20  and  O7_21 
REMARK    9  A    between atoms: C18_25  and  C19_26 
REMARK   10  A    between atoms: C24_32  and  C25_33 
REMARK   11  A    between atoms: C25_33  and  C27_35 
REMARK   12  A    between atoms: C27_35  and  C28_36 
REMARK   13  A    between atoms: C29_37  and  C30_38 
REMARK   14  A    between atoms: C30_38  and  O9_41 
ROOT
HETATM    1  C2  UNL     1     -18.262   0.007  16.429  1.00  0.00     0.149 C 
HETATM    2  C3  UNL     1     -18.316   1.506  16.538  1.00  0.00     0.009 C 
HETATM    3  C4  UNL     1     -18.023   2.286  15.481  1.00  0.00    -0.066 C 
HETATM    4  C5  UNL     1     -17.627   1.545  14.211  1.00  0.00     0.031 C 
HETATM    5  C6  UNL     1     -17.336   2.490  13.035  1.00  0.00     0.013 C 
HETATM    6  C7  UNL     1     -18.434   3.540  12.943  1.00  0.00     0.034 C 
HETATM    7  C8  UNL     1     -18.376   4.509  14.129  1.00  0.00     0.136 C 
HETATM    8  C15 UNL     1     -18.001   3.828  15.512  1.00  0.00     0.002 C 
HETATM    9  C16 UNL     1     -16.593   4.267  15.987  1.00  0.00     0.022 C 
HETATM   10  C17 UNL     1     -18.989   4.397  16.569  1.00  0.00     0.022 C 
HETATM   11  C18 UNL     1     -16.531   0.445  14.492  1.00  0.00     0.027 C 
HETATM   12  C20 UNL     1     -16.262  -0.369  13.184  1.00  0.00     0.018 C 
HETATM   13  C21 UNL     1     -15.493  -1.698  13.297  1.00  0.00     0.011 C 
HETATM   14  C22 UNL     1     -15.522  -2.345  14.687  1.00  0.00    -0.032 C 
HETATM   15  C23 UNL     1     -14.260  -1.880  15.482  1.00  0.00     0.016 C 
HETATM   16  C24 UNL     1     -15.584  -3.905  14.679  1.00  0.00    -0.002 C 
HETATM   17  C33 UNL     1     -16.120  -4.242  16.092  1.00  0.00     0.006 C 
HETATM   18  C34 UNL     1     -16.756  -2.943  16.644  1.00  0.00     0.011 C 
HETATM   19  C35 UNL     1     -16.879  -1.996  15.430  1.00  0.00    -0.029 C 
HETATM   20  C36 UNL     1     -18.188  -2.418  14.687  1.00  0.00     0.016 C 
HETATM   21  C37 UNL     1     -16.935  -0.459  15.752  1.00  0.00     0.043 C 
ENDROOT
BRANCH   7  22
HETATM   22  O2  UNL     1     -17.403   5.520  13.798  1.00  0.00    -0.352 OA
BRANCH  22  23
HETATM   23  C9  UNL     1     -17.693   6.252  12.600  1.00  0.00     0.292 C 
HETATM   24  O3  UNL     1     -16.495   6.329  11.817  1.00  0.00    -0.348 OA
HETATM   25  C10 UNL     1     -15.614   7.407  12.141  1.00  0.00     0.179 C 
HETATM   26  C12 UNL     1     -16.282   8.771  11.877  1.00  0.00     0.180 C 
HETATM   27  C13 UNL     1     -17.814   8.718  11.998  1.00  0.00     0.183 C 
HETATM   28  C14 UNL     1     -18.290   7.637  12.964  1.00  0.00     0.204 C 
BRANCH  25  29
HETATM   29  C11 UNL     1     -15.029   7.286  13.558  1.00  0.00     0.198 C 
BRANCH  29  30
HETATM   30  O4  UNL     1     -14.230   8.421  13.869  1.00  0.00    -0.398 OA
HETATM   31  H16 UNL     1     -13.824   8.246  14.737  1.00  0.00     0.209 HD
ENDBRANCH  29  30
ENDBRANCH  25  29
BRANCH  26  32
HETATM   32  O5  UNL     1     -15.986   9.217  10.535  1.00  0.00    -0.390 OA
HETATM   33  H18 UNL     1     -15.841  10.183  10.579  1.00  0.00     0.210 HD
ENDBRANCH  26  32
BRANCH  27  34
HETATM   34  O6  UNL     1     -18.431   8.487  10.718  1.00  0.00    -0.390 OA
HETATM   35  H20 UNL     1     -17.712   8.617  10.058  1.00  0.00     0.210 HD
ENDBRANCH  27  34
BRANCH  28  36
HETATM   36  O7  UNL     1     -19.725   7.573  12.973  1.00  0.00    -0.388 OA
HETATM   37  H22 UNL     1     -20.011   8.039  12.155  1.00  0.00     0.210 HD
ENDBRANCH  28  36
ENDBRANCH  22  23
ENDBRANCH   7  22
BRANCH  11  38
HETATM   38  C19 UNL     1     -15.232   1.220  14.790  1.00  0.00     0.241 C 
HETATM   39  O8  UNL     1     -14.594   1.173  15.836  1.00  0.00    -0.306 OA
ENDBRANCH  11  38
BRANCH   1  40
HETATM   40  O1  UNL     1     -18.353  -0.567  17.740  1.00  0.00    -0.386 OA
HETATM   41  C1  UNL     1     -19.654  -1.065  18.037  1.00  0.00     0.202 C 
ENDBRANCH   1  40
BRANCH  16  42
HETATM   42  C25 UNL     1     -14.459  -4.800  14.073  1.00  0.00    -0.010 C 
HETATM   43  C26 UNL     1     -13.938  -5.787  15.135  1.00  0.00     0.010 C 
BRANCH  42  44
HETATM   44  C27 UNL     1     -13.268  -4.195  13.298  1.00  0.00     0.031 C 
BRANCH  44  45
HETATM   45  C28 UNL     1     -13.524  -3.673  11.913  1.00  0.00    -0.027 C 
HETATM   46  C29 UNL     1     -14.422  -4.234  11.083  1.00  0.00     0.006 C 
BRANCH  46  47
HETATM   47  C30 UNL     1     -14.811  -3.768   9.704  1.00  0.00     0.068 C 
HETATM   48  C31 UNL     1     -13.588  -3.190   8.987  1.00  0.00     0.050 C 
HETATM   49  C32 UNL     1     -15.475  -4.824   8.807  1.00  0.00     0.050 C 
BRANCH  47  50
HETATM   50  O9  UNL     1     -15.737  -2.697   9.898  1.00  0.00    -0.387 OA
HETATM   51  H52 UNL     1     -16.559  -3.092  10.240  1.00  0.00     0.211 HD
ENDBRANCH  47  50
ENDBRANCH  46  47
ENDBRANCH  44  45
ENDBRANCH  42  44
ENDBRANCH  16  42
TORSDOF 14
ENDMDL
