MODEL 1
REMARK minimizedAffinity -6.77704
REMARK CNNscore 0.283249944
REMARK CNNaffinity 5.66035509
REMARK  12 active torsions:
REMARK  status: ('A' for Active; 'I' for Inactive)
REMARK    1  A    between atoms: O1_2  and  C2_3 
REMARK    2  A    between atoms: C3_6  and  C4_7 
REMARK    3  A    between atoms: C4_7  and  C5_8 
REMARK    4  A    between atoms: C6_9  and  C8_11 
REMARK    5  A    between atoms: C8_11  and  C9_12 
REMARK    6  A    between atoms: C10_13  and  C11_14 
REMARK    7  A    between atoms: C13_16  and  C14_17 
REMARK    8  A    between atoms: C14_17  and  C16_19 
REMARK    9  A    between atoms: C16_19  and  O2_20 
REMARK   10  A    between atoms: C16_19  and  C18_22 
REMARK   11  A    between atoms: C24_29  and  O4_30 
REMARK   12  A    between atoms: C25_31  and  O5_32 
ROOT
HETATM    1  C5  UNL     1      -2.487  50.152 -24.608  1.00  0.00    -0.018 C 
HETATM    2  C6  UNL     1      -3.183  49.128 -25.145  1.00  0.00    -0.084 C 
HETATM    3  C7  UNL     1      -2.938  48.559 -26.518  1.00  0.00     0.043 C 
ENDROOT
BRANCH   2   4
HETATM    4  C8  UNL     1      -4.338  48.499 -24.388  1.00  0.00     0.060 C 
BRANCH   4   5
HETATM    5  C9  UNL     1      -5.445  48.061 -25.310  1.00  0.00    -0.022 C 
HETATM    6  C10 UNL     1      -6.709  47.858 -24.903  1.00  0.00     0.003 C 
BRANCH   6   7
HETATM    7  C11 UNL     1      -7.844  47.448 -25.734  1.00  0.00    -0.066 C 
HETATM    8  C12 UNL     1      -9.066  48.326 -25.715  1.00  0.00     0.048 C 
HETATM    9  C13 UNL     1      -7.717  46.321 -26.469  1.00  0.00    -0.013 C 
BRANCH   9  10
HETATM   10  C14 UNL     1      -8.702  45.620 -27.400  1.00  0.00     0.037 C 
HETATM   11  C15 UNL     1     -10.157  45.922 -27.024  1.00  0.00     0.017 C 
BRANCH  10  12
HETATM   12  C16 UNL     1      -8.352  45.847 -28.899  1.00  0.00     0.165 C 
BRANCH  12  13
HETATM   13  O2  UNL     1      -8.442  44.569 -29.563  1.00  0.00    -0.387 OA
HETATM   14  C17 UNL     1      -7.175  44.070 -29.971  1.00  0.00     0.202 C 
ENDBRANCH  12  13
BRANCH  12  15
HETATM   15  C18 UNL     1      -9.290  46.806 -29.618  1.00  0.00     0.110 A 
HETATM   16  C19 UNL     1      -9.168  48.269 -29.310  1.00  0.00     0.051 C 
HETATM   17  O3  UNL     1      -9.508  46.504 -31.009  1.00  0.00    -0.367 OA
HETATM   18  C20 UNL     1     -10.611  46.243 -30.137  1.00  0.00     0.155 A 
HETATM   19  C21 UNL     1     -11.815  47.074 -30.395  1.00  0.00     0.042 C 
ENDBRANCH  12  15
ENDBRANCH  10  12
ENDBRANCH   9  10
ENDBRANCH   6   7
ENDBRANCH   4   5
ENDBRANCH   2   4
BRANCH   1  20
HETATM   20  C4  UNL     1      -1.316  50.901 -25.200  1.00  0.00     0.085 C 
BRANCH  20  21
HETATM   21  C3  UNL     1      -0.492  51.689 -24.191  1.00  0.00     0.023 A 
HETATM   22  N1  UNL     1      -0.381  51.153 -22.943  1.00  0.00    -0.337 N 
HETATM   23  C2  UNL     1       0.331  51.823 -22.008  1.00  0.00     0.179 A 
ATOM     24  H1  UNL     1      -0.826  50.263 -22.718  1.00  0.00     0.168 HD
HETATM   25  C25 UNL     1       0.992  53.014 -22.270  1.00  0.00     0.153 A 
HETATM   26  C24 UNL     1       0.866  53.544 -23.552  1.00  0.00     0.111 A 
HETATM   27  C22 UNL     1       0.154  52.881 -24.555  1.00  0.00    -0.003 A 
HETATM   28  C23 UNL     1       0.039  53.473 -25.931  1.00  0.00     0.053 C 
BRANCH  23  29
HETATM   29  O1  UNL     1       0.383  51.315 -20.726  1.00  0.00    -0.339 OA
HETATM   30  C1  UNL     1      -0.135  49.995 -20.620  1.00  0.00     0.211 C 
ENDBRANCH  23  29
BRANCH  25  31
HETATM   31  O5  UNL     1       1.711  53.752 -21.364  1.00  0.00    -0.349 OA
HETATM   32  C26 UNL     1       0.894  54.234 -20.296  1.00  0.00     0.210 C 
ENDBRANCH  25  31
BRANCH  26  33
HETATM   33  O4  UNL     1       1.468  54.747 -23.833  1.00  0.00    -0.357 OA
HETATM   34  H36 UNL     1       1.791  55.085 -22.973  1.00  0.00     0.217 HD
ENDBRANCH  26  33
ENDBRANCH  20  21
ENDBRANCH   1  20
TORSDOF 12
ENDMDL
