MODEL 1
REMARK minimizedAffinity -7.489048
REMARK CNNscore 0.846317589
REMARK CNNaffinity 7.30079985
REMARK  13 active torsions:
REMARK  status: ('A' for Active; 'I' for Inactive)
REMARK    1  A    between atoms: C5_5  and  C6_6 
REMARK    2  A    between atoms: C6_6  and  C8_8 
REMARK    3  A    between atoms: C8_8  and  O1_9 
REMARK    4  A    between atoms: C13_15  and  O3_17 
REMARK    5  A    between atoms: C15_18  and  O4_19 
REMARK    6  A    between atoms: C18_22  and  O5_24 
REMARK    7  A    between atoms: O5_24  and  C20_25 
REMARK    8  A    between atoms: C20_25  and  C21_27 
REMARK    9  A    between atoms: C21_27  and  C22_28 
REMARK   10  A    between atoms: C21_27  and  O7_30 
REMARK   11  A    between atoms: O7_30  and  C24_31 
REMARK   12  A    between atoms: C24_31  and  C25_33 
REMARK   13  A    between atoms: C25_33  and  C26_34 
ROOT
HETATM    1  C1  UNL     1       1.663   9.542  13.635  1.00  0.00     0.015 C 
HETATM    2  C2  UNL     1       0.840   8.479  13.660  1.00  0.00    -0.082 C 
HETATM    3  C3  UNL     1       1.329   7.106  14.023  1.00  0.00     0.034 C 
HETATM    4  C4  UNL     1       1.036   6.071  12.928  1.00  0.00     0.010 C 
HETATM    5  C5  UNL     1      -0.157   6.398  11.989  1.00  0.00    -0.001 C 
HETATM    6  C9  UNL     1      -1.220   7.258  12.724  1.00  0.00     0.033 C 
HETATM    7  C10 UNL     1      -1.867   6.580  13.979  1.00  0.00     0.162 C 
HETATM    8  O2  UNL     1      -1.679   7.531  15.042  1.00  0.00    -0.376 OA
HETATM    9  C11 UNL     1      -1.592   8.809  14.402  1.00  0.00     0.133 C 
HETATM   10  C12 UNL     1      -1.428   9.896  15.431  1.00  0.00     0.072 C 
HETATM   11  C13 UNL     1      -2.616   9.899  16.448  1.00  0.00     0.082 C 
HETATM   12  C14 UNL     1      -2.647  11.300  17.090  1.00  0.00     0.049 C 
HETATM   13  C15 UNL     1      -4.045   9.562  15.869  1.00  0.00     0.152 C 
HETATM   14  C16 UNL     1      -4.397   8.058  15.648  1.00  0.00     0.038 C 
HETATM   15  C17 UNL     1      -4.369   7.434  14.222  1.00  0.00     0.043 C 
HETATM   16  C18 UNL     1      -3.398   6.222  13.942  1.00  0.00     0.093 C 
HETATM   17  C19 UNL     1      -3.707   5.124  14.991  1.00  0.00     0.049 C 
HETATM   18  C28 UNL     1      -0.618   8.583  13.263  1.00  0.00     0.050 C 
ENDROOT
BRANCH  16  19
HETATM   19  O5  UNL     1      -3.821   5.750  12.623  1.00  0.00    -0.306 OA
BRANCH  19  20
HETATM   20  C20 UNL     1      -3.689   4.448  12.250  1.00  0.00     0.289 C 
HETATM   21  O6  UNL     1      -2.637   3.908  11.931  1.00  0.00    -0.262 OA
BRANCH  20  22
HETATM   22  C21 UNL     1      -5.047   3.735  12.325  1.00  0.00     0.231 C 
BRANCH  22  23
HETATM   23  C22 UNL     1      -5.354   2.982  11.020  1.00  0.00     0.038 C 
HETATM   24  C23 UNL     1      -5.764   1.529  11.235  1.00  0.00     0.008 C 
ENDBRANCH  22  23
BRANCH  22  25
HETATM   25  O7  UNL     1      -6.131   4.648  12.552  1.00  0.00    -0.306 OA
BRANCH  25  26
HETATM   26  C24 UNL     1      -6.983   4.322  13.559  1.00  0.00     0.259 C 
HETATM   27  O8  UNL     1      -7.305   3.185  13.880  1.00  0.00    -0.265 OA
BRANCH  26  28
HETATM   28  C25 UNL     1      -7.505   5.568  14.227  1.00  0.00     0.111 C 
BRANCH  28  29
HETATM   29  C26 UNL     1      -7.691   5.389  15.730  1.00  0.00     0.005 C 
HETATM   30  C27 UNL     1      -7.436   6.672  16.506  1.00  0.00     0.005 C 
ENDBRANCH  28  29
ENDBRANCH  26  28
ENDBRANCH  25  26
ENDBRANCH  22  25
ENDBRANCH  20  22
ENDBRANCH  19  20
ENDBRANCH  16  19
BRANCH   5  31
HETATM   31  C6  UNL     1       0.326   7.035  10.636  1.00  0.00     0.010 C 
HETATM   32  C7  UNL     1      -0.326   8.410  10.396  1.00  0.00     0.012 C 
BRANCH  31  33
HETATM   33  C8  UNL     1       1.856   7.193  10.526  1.00  0.00     0.168 C 
BRANCH  33  34
HETATM   34  O1  UNL     1       2.264   7.845   9.331  1.00  0.00    -0.400 OA
HETATM   35  H14 UNL     1       1.813   7.414   8.573  1.00  0.00     0.209 HD
ENDBRANCH  33  34
ENDBRANCH  31  33
ENDBRANCH   5  31
BRANCH  13  36
HETATM   36  O4  UNL     1      -4.351  10.339  14.713  1.00  0.00    -0.393 OA
HETATM   37  H25 UNL     1      -4.690  11.198  15.018  1.00  0.00     0.210 HD
ENDBRANCH  13  36
BRANCH  11  38
HETATM   38  O3  UNL     1      -2.364   8.999  17.538  1.00  0.00    -0.388 OA
HETATM   39  H23 UNL     1      -1.408   8.820  17.589  1.00  0.00     0.210 HD
ENDBRANCH  11  38
TORSDOF 13
ENDMDL
