MODEL 1
REMARK minimizedAffinity -7.3740983
REMARK CNNscore 0.778657854
REMARK CNNaffinity 7.48581648
REMARK  4 active torsions:
REMARK  status: ('A' for Active; 'I' for Inactive)
REMARK    1  A    between atoms: C4_4  and  C5_5 
REMARK    2  A    between atoms: C5_5  and  C6_7 
REMARK    3  A    between atoms: C6_7  and  C7_8 
REMARK    4  A    between atoms: C7_8  and  C9_10 
ROOT
HETATM    1  C9  UNL     1       4.912  55.258  -8.803  1.00  0.00    -0.001 C 
HETATM    2  C10 UNL     1       4.194  56.495  -8.186  1.00  0.00     0.007 C 
HETATM    3  C11 UNL     1       2.691  56.361  -8.504  1.00  0.00     0.015 C 
HETATM    4  C12 UNL     1       2.611  55.238  -9.558  1.00  0.00    -0.013 C 
HETATM    5  C13 UNL     1       2.909  55.913 -10.937  1.00  0.00     0.021 C 
HETATM    6  C14 UNL     1       1.283  54.504  -9.726  1.00  0.00    -0.070 C 
HETATM    7  C15 UNL     1       0.097  55.123  -9.580  1.00  0.00    -0.022 C 
HETATM    8  C16 UNL     1      -1.235  54.485  -9.848  1.00  0.00     0.034 C 
HETATM    9  C17 UNL     1      -1.169  52.956 -10.056  1.00  0.00     0.013 C 
HETATM   10  C18 UNL     1      -2.534  52.267 -10.446  1.00  0.00     0.018 C 
HETATM   11  C19 UNL     1      -3.664  53.273 -10.757  1.00  0.00     0.023 C 
HETATM   12  C20 UNL     1      -3.018  51.389  -9.269  1.00  0.00     0.023 C 
HETATM   13  C21 UNL     1      -2.401  51.323 -11.650  1.00  0.00     0.135 C 
HETATM   14  O2  UNL     1      -3.312  51.179 -12.470  1.00  0.00    -0.297 OA
HETATM   15  C22 UNL     1      -1.163  50.468 -11.781  1.00  0.00     0.080 C 
HETATM   16  C23 UNL     1       0.061  51.024 -11.073  1.00  0.00     0.017 C 
HETATM   17  C24 UNL     1       0.069  52.565 -10.941  1.00  0.00    -0.031 C 
HETATM   18  C25 UNL     1       0.019  53.218 -12.344  1.00  0.00     0.016 C 
HETATM   19  C26 UNL     1       1.359  53.031 -10.154  1.00  0.00     0.024 C 
HETATM   20  C27 UNL     1       2.701  52.685 -10.844  1.00  0.00     0.010 C 
HETATM   21  C28 UNL     1       3.974  53.169 -10.105  1.00  0.00     0.011 C 
HETATM   22  C29 UNL     1       3.728  54.262  -9.042  1.00  0.00    -0.029 C 
HETATM   23  C30 UNL     1       3.385  53.580  -7.678  1.00  0.00     0.016 C 
ENDROOT
BRANCH   1  24
HETATM   24  C7  UNL     1       6.140  54.803  -7.965  1.00  0.00    -0.007 C 
HETATM   25  C8  UNL     1       7.081  53.869  -8.733  1.00  0.00     0.011 C 
BRANCH  24  26
HETATM   26  C6  UNL     1       6.932  55.986  -7.356  1.00  0.00     0.087 C 
BRANCH  26  27
HETATM   27  C5  UNL     1       7.286  55.878  -5.879  1.00  0.00     0.149 C 
HETATM   28  O1  UNL     1       6.530  55.411  -5.034  1.00  0.00    -0.293 OA
BRANCH  27  29
HETATM   29  C4  UNL     1       8.620  56.442  -5.498  1.00  0.00     0.052 C 
HETATM   30  C2  UNL     1       8.853  57.712  -5.115  1.00  0.00    -0.084 C 
HETATM   31  C1  UNL     1      10.255  58.172  -4.813  1.00  0.00     0.043 C 
HETATM   32  C3  UNL     1       7.799  58.774  -4.945  1.00  0.00     0.043 C 
ENDBRANCH  27  29
ENDBRANCH  26  27
ENDBRANCH  24  26
ENDBRANCH   1  24
TORSDOF 4
ENDMDL
