MODEL 1
REMARK minimizedAffinity -8.43022537
REMARK CNNscore 0.625861883
REMARK CNNaffinity 7.4089551
REMARK  10 active torsions:
REMARK  status: ('A' for Active; 'I' for Inactive)
REMARK    1  A    between atoms: C2_2  and  O2_4 
REMARK    2  A    between atoms: O2_4  and  C3_5 
REMARK    3  A    between atoms: C3_5  and  C4_6 
REMARK    4  A    between atoms: C4_6  and  N1_7 
REMARK       I    between atoms: N1_7  and  C6_9 
REMARK    5  A    between atoms: C6_9  and  C7_11 
REMARK    6  A    between atoms: C19_24  and  O5_25 
REMARK    7  A    between atoms: O5_25  and  C20_26 
REMARK    8  A    between atoms: C20_26  and  C21_28 
REMARK    9  A    between atoms: C21_28  and  C22_29 
REMARK   10  A    between atoms: C22_29  and  O7_32 
ROOT
HETATM    1  C7  UNL     1      -0.975  49.048 -17.038  1.00  0.00     0.077 C 
HETATM    2  C8  UNL     1      -1.286  49.164 -18.348  1.00  0.00    -0.070 C 
HETATM    3  C9  UNL     1      -0.388  49.798 -19.379  1.00  0.00     0.035 C 
HETATM    4  C10 UNL     1      -1.065  50.090 -20.724  1.00  0.00     0.010 C 
HETATM    5  C11 UNL     1      -2.493  50.657 -20.568  1.00  0.00     0.006 C 
HETATM    6  C12 UNL     1      -3.370  49.751 -19.654  1.00  0.00     0.068 C 
HETATM    7  C13 UNL     1      -4.622  49.140 -20.260  1.00  0.00     0.132 C 
HETATM    8  O4  UNL     1      -5.471  48.625 -19.522  1.00  0.00    -0.298 OA
HETATM    9  C14 UNL     1      -4.862  49.149 -21.748  1.00  0.00     0.085 C 
HETATM   10  C15 UNL     1      -3.767  49.800 -22.604  1.00  0.00     0.011 C 
HETATM   11  C16 UNL     1      -4.173  49.922 -24.132  1.00  0.00    -0.016 C 
HETATM   12  C17 UNL     1      -5.569  50.543 -24.373  1.00  0.00     0.018 C 
HETATM   13  C18 UNL     1      -4.242  48.496 -24.746  1.00  0.00     0.018 C 
HETATM   14  C19 UNL     1      -3.080  50.712 -24.920  1.00  0.00     0.140 C 
HETATM   15  C25 UNL     1      -2.761  52.052 -24.257  1.00  0.00     0.034 C 
HETATM   16  C26 UNL     1      -2.217  51.817 -22.857  1.00  0.00     0.012 C 
HETATM   17  C27 UNL     1      -3.209  51.087 -21.913  1.00  0.00    -0.035 C 
HETATM   18  C28 UNL     1      -4.318  52.107 -21.531  1.00  0.00     0.016 C 
HETATM   19  C29 UNL     1      -2.619  48.653 -18.856  1.00  0.00     0.022 C 
HETATM   20  C30 UNL     1      -2.433  47.317 -19.601  1.00  0.00     0.015 C 
ENDROOT
BRANCH   1  21
HETATM   21  C6  UNL     1       0.326  49.448 -16.412  1.00  0.00     0.243 C 
HETATM   22  N1  UNL     1       0.733  50.770 -16.567  1.00  0.00    -0.351 N 
HETATM   23  C5  UNL     1       1.955  51.186 -15.889  1.00  0.00     0.153 C 
HETATM   24  O3  UNL     1       0.992  48.623 -15.783  1.00  0.00    -0.268 OA
BRANCH  22  25
HETATM   25  C4  UNL     1       0.015  51.820 -17.308  1.00  0.00     0.152 C 
BRANCH  25  26
HETATM   26  C3  UNL     1       0.929  52.740 -18.127  1.00  0.00     0.198 C 
BRANCH  26  27
HETATM   27  O2  UNL     1       0.225  53.225 -19.283  1.00  0.00    -0.320 OA
BRANCH  27  28
HETATM   28  C2  UNL     1       0.997  53.554 -20.357  1.00  0.00     0.254 C 
HETATM   29  C1  UNL     1       1.061  52.397 -21.309  1.00  0.00     0.126 C 
HETATM   30  O1  UNL     1       1.544  54.631 -20.545  1.00  0.00    -0.266 OA
ENDBRANCH  27  28
ENDBRANCH  26  27
ENDBRANCH  25  26
ENDBRANCH  22  25
ENDBRANCH   1  21
BRANCH  14  31
HETATM   31  O5  UNL     1      -3.522  50.938 -26.276  1.00  0.00    -0.315 OA
BRANCH  31  32
HETATM   32  C20 UNL     1      -2.651  50.592 -27.261  1.00  0.00     0.262 C 
HETATM   33  O6  UNL     1      -2.963  50.231 -28.387  1.00  0.00    -0.265 OA
BRANCH  32  34
HETATM   34  C21 UNL     1      -1.232  50.698 -26.772  1.00  0.00     0.148 C 
BRANCH  34  35
HETATM   35  C22 UNL     1      -0.507  51.955 -27.258  1.00  0.00     0.059 C 
HETATM   36  C23 UNL     1       0.527  51.647 -28.342  1.00  0.00     0.045 C 
HETATM   37  C24 UNL     1       0.148  52.735 -26.115  1.00  0.00     0.045 C 
BRANCH  35  38
HETATM   38  O7  UNL     1      -1.487  52.814 -27.864  1.00  0.00    -0.390 OA
HETATM   39  H36 UNL     1      -2.124  53.093 -27.182  1.00  0.00     0.210 HD
ENDBRANCH  35  38
ENDBRANCH  34  35
ENDBRANCH  32  34
ENDBRANCH  31  32
ENDBRANCH  14  31
TORSDOF 10
ENDMDL
