MODEL 1
REMARK minimizedAffinity -7.86982107
REMARK CNNscore 0.765578389
REMARK CNNaffinity 6.59849691
REMARK  8 active torsions:
REMARK  status: ('A' for Active; 'I' for Inactive)
REMARK    1  A    between atoms: C2_2  and  C4_4 
REMARK    2  A    between atoms: C4_4  and  O1_6 
REMARK    3  A    between atoms: C4_4  and  C6_7 
REMARK    4  A    between atoms: C7_9  and  C8_10 
REMARK    5  A    between atoms: C8_10  and  O3_12 
REMARK    6  A    between atoms: C8_10  and  C10_13 
REMARK    7  A    between atoms: C17_20  and  O4_21 
REMARK    8  A    between atoms: C23_28  and  O6_29 
ROOT
HETATM    1  C10 UNL     1       3.278  54.129  -9.135  1.00  0.00     0.034 C 
HETATM    2  C11 UNL     1       4.104  52.811  -9.100  1.00  0.00     0.021 C 
HETATM    3  C12 UNL     1       5.376  53.066  -8.215  1.00  0.00    -0.004 C 
HETATM    4  C13 UNL     1       5.662  51.867  -7.288  1.00  0.00     0.013 C 
HETATM    5  C14 UNL     1       6.232  50.801  -8.208  1.00  0.00     0.001 C 
HETATM    6  C15 UNL     1       7.046  51.564  -9.238  1.00  0.00     0.001 C 
HETATM    7  C16 UNL     1       6.626  53.039  -9.126  1.00  0.00     0.013 C 
HETATM    8  C17 UNL     1       4.984  54.376  -7.451  1.00  0.00     0.097 C 
HETATM    9  C18 UNL     1       5.906  55.269  -6.632  1.00  0.00    -0.036 C 
HETATM   10  C19 UNL     1       7.227  55.089  -6.489  1.00  0.00     0.057 C 
HETATM   11  C20 UNL     1       8.091  56.108  -5.855  1.00  0.00     0.154 C 
HETATM   12  O5  UNL     1       9.290  55.856  -5.726  1.00  0.00    -0.293 OA
HETATM   13  C21 UNL     1       7.474  57.450  -5.471  1.00  0.00     0.071 C 
HETATM   14  C22 UNL     1       8.382  58.201  -4.481  1.00  0.00     0.045 C 
HETATM   15  C23 UNL     1       8.292  57.694  -3.037  1.00  0.00     0.119 C 
HETATM   16  C24 UNL     1       7.459  56.429  -2.865  1.00  0.00     0.032 C 
HETATM   17  C25 UNL     1       6.096  56.466  -3.566  1.00  0.00     0.013 C 
HETATM   18  C26 UNL     1       6.045  57.250  -4.923  1.00  0.00    -0.026 C 
HETATM   19  C27 UNL     1       5.387  58.624  -4.636  1.00  0.00     0.016 C 
HETATM   20  C28 UNL     1       5.166  56.444  -5.958  1.00  0.00     0.026 C 
HETATM   21  C29 UNL     1       4.448  57.277  -7.044  1.00  0.00     0.011 C 
HETATM   22  C30 UNL     1       3.501  56.407  -7.892  1.00  0.00     0.014 C 
HETATM   23  C31 UNL     1       4.241  55.221  -8.557  1.00  0.00    -0.002 C 
HETATM   24  C32 UNL     1       5.206  55.822  -9.606  1.00  0.00     0.019 C 
ENDROOT
BRANCH   1  25
HETATM   25  C8  UNL     1       2.409  54.357 -10.409  1.00  0.00     0.087 C 
HETATM   26  C9  UNL     1       2.588  55.813 -10.883  1.00  0.00     0.049 C 
BRANCH  25  27
HETATM   27  C7  UNL     1       0.958  53.952 -10.288  1.00  0.00     0.188 A 
HETATM   28  C6  UNL     1       0.047  53.631 -11.473  1.00  0.00     0.188 A 
HETATM   29  O2  UNL     1      -0.011  54.885 -10.777  1.00  0.00    -0.369 OA
BRANCH  28  30
HETATM   30  C4  UNL     1      -1.233  52.814 -11.406  1.00  0.00     0.086 C 
HETATM   31  C5  UNL     1      -0.981  51.346 -11.021  1.00  0.00     0.049 C 
BRANCH  30  32
HETATM   32  C2  UNL     1      -2.266  53.491 -10.440  1.00  0.00     0.014 C 
HETATM   33  C1  UNL     1      -2.417  52.750  -9.102  1.00  0.00     0.012 C 
HETATM   34  C3  UNL     1      -3.668  53.616 -11.060  1.00  0.00     0.012 C 
ENDBRANCH  30  32
BRANCH  30  35
HETATM   35  O1  UNL     1      -1.793  52.802 -12.727  1.00  0.00    -0.387 OA
HETATM   36  H11 UNL     1      -1.167  52.340 -13.313  1.00  0.00     0.210 HD
ENDBRANCH  30  35
ENDBRANCH  28  30
ENDBRANCH  25  27
BRANCH  25  37
HETATM   37  O3  UNL     1       2.967  53.526 -11.443  1.00  0.00    -0.387 OA
HETATM   38  H17 UNL     1       2.624  53.838 -12.297  1.00  0.00     0.210 HD
ENDBRANCH  25  37
ENDBRANCH   1  25
BRANCH   8  39
HETATM   39  O4  UNL     1       3.994  53.950  -6.477  1.00  0.00    -0.384 OA
HETATM   40  H29 UNL     1       4.471  53.560  -5.724  1.00  0.00     0.211 HD
ENDBRANCH   8  39
BRANCH  15  41
HETATM   41  O6  UNL     1       7.729  58.714  -2.209  1.00  0.00    -0.396 OA
HETATM   42  H35 UNL     1       8.347  59.468  -2.222  1.00  0.00     0.210 HD
ENDBRANCH  15  41
TORSDOF 8
ENDMDL
