MODEL 1
REMARK minimizedAffinity -8.16797256
REMARK CNNscore 0.70045054
REMARK CNNaffinity 6.67229843
REMARK  13 active torsions:
REMARK  status: ('A' for Active; 'I' for Inactive)
REMARK    1  A    between atoms: C4_4  and  C5_5 
REMARK    2  A    between atoms: C5_5  and  C6_6 
REMARK    3  A    between atoms: C6_6  and  C7_7 
REMARK    4  A    between atoms: C7_7  and  C9_9 
REMARK    5  A    between atoms: C18_18  and  C20_20 
REMARK    6  A    between atoms: C20_20  and  O2_22 
REMARK    7  A    between atoms: C21_23  and  O3_24 
REMARK    8  A    between atoms: O3_24  and  C22_25 
REMARK    9  A    between atoms: C23_27  and  C24_28 
REMARK   10  A    between atoms: C24_28  and  O5_29 
REMARK   11  A    between atoms: C25_30  and  O6_31 
REMARK   12  A    between atoms: C26_32  and  O7_33 
REMARK   13  A    between atoms: C28_35  and  O8_36 
ROOT
HETATM    1  C9  UNL     1       4.224  56.875  -6.411  1.00  0.00    -0.002 C 
HETATM    2  C10 UNL     1       3.253  58.056  -6.142  1.00  0.00     0.006 C 
HETATM    3  C11 UNL     1       1.924  57.745  -6.851  1.00  0.00     0.011 C 
HETATM    4  C12 UNL     1       2.043  56.279  -7.303  1.00  0.00    -0.032 C 
HETATM    5  C13 UNL     1       1.601  55.411  -6.081  1.00  0.00     0.016 C 
HETATM    6  C14 UNL     1       1.198  55.924  -8.560  1.00  0.00     0.004 C 
HETATM    7  C15 UNL     1      -0.305  55.837  -8.291  1.00  0.00     0.007 C 
HETATM    8  C16 UNL     1      -1.086  55.623  -9.581  1.00  0.00     0.007 C 
HETATM    9  C17 UNL     1      -0.749  54.335 -10.370  1.00  0.00     0.018 C 
HETATM   10  C18 UNL     1      -1.830  53.191 -10.315  1.00  0.00     0.072 C 
HETATM   11  C19 UNL     1      -3.231  53.753 -10.687  1.00  0.00     0.030 C 
HETATM   12  C21 UNL     1      -1.440  52.044 -11.323  1.00  0.00     0.146 C 
HETATM   13  C27 UNL     1       0.066  51.925 -11.592  1.00  0.00     0.066 C 
HETATM   14  C28 UNL     1       0.916  52.368 -10.421  1.00  0.00     0.130 C 
HETATM   15  C29 UNL     1       0.711  53.852 -10.160  1.00  0.00    -0.001 A 
HETATM   16  C30 UNL     1       1.772  54.741 -10.780  1.00  0.00     0.024 A 
HETATM   17  C31 UNL     1       1.708  54.654  -9.272  1.00  0.00    -0.025 A 
HETATM   18  C32 UNL     1       2.831  53.882  -8.582  1.00  0.00     0.011 C 
HETATM   19  C33 UNL     1       3.923  54.710  -7.879  1.00  0.00     0.011 C 
HETATM   20  C34 UNL     1       3.574  56.186  -7.655  1.00  0.00    -0.032 C 
HETATM   21  C35 UNL     1       3.976  56.979  -8.935  1.00  0.00     0.016 C 
ENDROOT
BRANCH  12  22
HETATM   22  O3  UNL     1      -2.107  52.263 -12.588  1.00  0.00    -0.352 OA
BRANCH  22  23
HETATM   23  C22 UNL     1      -2.934  51.176 -13.006  1.00  0.00     0.292 C 
HETATM   24  O4  UNL     1      -2.580  49.955 -12.338  1.00  0.00    -0.348 OA
HETATM   25  C23 UNL     1      -2.011  49.046 -13.307  1.00  0.00     0.179 C 
HETATM   26  C25 UNL     1      -2.683  49.438 -14.614  1.00  0.00     0.182 C 
HETATM   27  C26 UNL     1      -2.712  50.952 -14.513  1.00  0.00     0.204 C 
BRANCH  25  28
HETATM   28  C24 UNL     1      -0.479  49.165 -13.320  1.00  0.00     0.198 C 
BRANCH  28  29
HETATM   29  O5  UNL     1      -0.051  49.845 -14.502  1.00  0.00    -0.398 OA
HETATM   30  H39 UNL     1       0.921  49.880 -14.467  1.00  0.00     0.209 HD
ENDBRANCH  28  29
ENDBRANCH  25  28
BRANCH  26  31
HETATM   31  O6  UNL     1      -2.018  48.990 -15.788  1.00  0.00    -0.390 OA
HETATM   32  H41 UNL     1      -2.432  49.479 -16.532  1.00  0.00     0.210 HD
ENDBRANCH  26  31
BRANCH  27  33
HETATM   33  O7  UNL     1      -3.716  51.489 -15.384  1.00  0.00    -0.388 OA
HETATM   34  H43 UNL     1      -4.554  51.556 -14.899  1.00  0.00     0.210 HD
ENDBRANCH  27  33
ENDBRANCH  22  23
ENDBRANCH  12  22
BRANCH  10  35
HETATM   35  C20 UNL     1      -2.022  52.607  -8.914  1.00  0.00     0.151 C 
HETATM   36  O1  UNL     1      -2.391  51.486  -8.604  1.00  0.00    -0.649 OA
BRANCH  35  37
HETATM   37  O2  UNL     1      -1.619  53.431  -7.922  1.00  0.00    -0.776 OA
HETATM   38  H33 UNL     1      -1.819  52.906  -7.120  1.00  0.00     0.167 HD
ENDBRANCH  35  37
ENDBRANCH  10  35
BRANCH  14  39
HETATM   39  O8  UNL     1       0.565  51.613  -9.272  1.00  0.00    -0.395 OA
HETATM   40  H47 UNL     1       1.391  51.423  -8.789  1.00  0.00     0.210 HD
ENDBRANCH  14  39
BRANCH   1  41
HETATM   41  C7  UNL     1       5.718  57.315  -6.439  1.00  0.00    -0.014 C 
HETATM   42  C8  UNL     1       6.652  56.140  -6.763  1.00  0.00     0.010 C 
BRANCH  41  43
HETATM   43  C6  UNL     1       6.164  57.914  -5.074  1.00  0.00     0.008 C 
BRANCH  43  44
HETATM   44  C5  UNL     1       7.246  58.989  -5.201  1.00  0.00     0.028 C 
BRANCH  44  45
HETATM   45  C4  UNL     1       8.605  58.431  -4.877  1.00  0.00    -0.025 C 
HETATM   46  C2  UNL     1       9.793  59.062  -4.964  1.00  0.00    -0.091 C 
HETATM   47  C1  UNL     1       9.976  60.499  -5.364  1.00  0.00     0.042 C 
HETATM   48  C3  UNL     1      11.073  58.338  -4.639  1.00  0.00     0.042 C 
ENDBRANCH  44  45
ENDBRANCH  43  44
ENDBRANCH  41  43
ENDBRANCH   1  41
TORSDOF 13
ENDMDL
