MODEL 1
REMARK minimizedAffinity -9.51665401
REMARK CNNscore 0.851177454
REMARK CNNaffinity 6.96329927
REMARK  13 active torsions:
REMARK  status: ('A' for Active; 'I' for Inactive)
REMARK    1  A    between atoms: C2_2  and  C3_3 
REMARK    2  A    between atoms: C2_2  and  C9_11 
REMARK    3  A    between atoms: C3_3  and  C4_4 
REMARK    4  A    between atoms: C4_4  and  C5_5 
REMARK    5  A    between atoms: C5_5  and  C6_6 
REMARK    6  A    between atoms: C6_6  and  O1_8 
REMARK    7  A    between atoms: C6_6  and  C8_9 
REMARK    8  A    between atoms: C8_9  and  O2_10 
REMARK    9  A    between atoms: C10_12  and  O3_13 
REMARK   10  A    between atoms: C11_14  and  O4_15 
REMARK   11  A    between atoms: C13_17  and  O5_18 
REMARK   12  A    between atoms: C15_20  and  O6_21 
REMARK   13  A    between atoms: C18_24  and  O7_25 
ROOT
HETATM    1  C9  UNL     1      -2.109   7.338  12.514  1.00  0.00     0.029 C 
HETATM    2  C10 UNL     1      -1.701   5.840  12.629  1.00  0.00     0.152 C 
HETATM    3  C11 UNL     1      -2.684   5.191  13.627  1.00  0.00     0.155 C 
HETATM    4  C12 UNL     1      -3.905   6.113  13.557  1.00  0.00     0.060 C 
HETATM    5  C13 UNL     1      -5.062   5.916  14.578  1.00  0.00     0.071 C 
HETATM    6  C14 UNL     1      -5.931   4.697  14.185  1.00  0.00     0.071 C 
HETATM    7  C15 UNL     1      -7.178   5.065  13.395  1.00  0.00     0.126 C 
HETATM    8  C16 UNL     1      -8.141   5.957  14.202  1.00  0.00     0.025 C 
HETATM    9  C17 UNL     1      -9.116   6.681  13.246  1.00  0.00     0.039 C 
HETATM   10  C18 UNL     1     -10.223   7.415  14.008  1.00  0.00     0.118 C 
HETATM   11  C19 UNL     1      -9.746   8.045  15.317  1.00  0.00     0.032 C 
HETATM   12  C20 UNL     1      -8.238   8.287  15.302  1.00  0.00     0.012 C 
HETATM   13  C21 UNL     1      -7.418   6.961  15.164  1.00  0.00    -0.031 C 
HETATM   14  C22 UNL     1      -7.400   6.338  16.597  1.00  0.00     0.016 C 
HETATM   15  C23 UNL     1      -5.920   7.237  14.727  1.00  0.00     0.029 C 
HETATM   16  C24 UNL     1      -5.764   8.126  13.467  1.00  0.00     0.009 C 
HETATM   17  C25 UNL     1      -4.315   8.560  13.176  1.00  0.00     0.011 C 
HETATM   18  C26 UNL     1      -3.245   7.527  13.585  1.00  0.00    -0.029 C 
HETATM   19  C27 UNL     1      -2.667   7.913  14.963  1.00  0.00     0.016 C 
ENDROOT
BRANCH   1  20
HETATM   20  C2  UNL     1      -0.942   8.357  12.335  1.00  0.00    -0.011 C 
HETATM   21  C1  UNL     1      -1.056   9.692  13.080  1.00  0.00     0.010 C 
BRANCH  20  22
HETATM   22  C3  UNL     1      -0.640   8.597  10.837  1.00  0.00     0.005 C 
BRANCH  22  23
HETATM   23  C4  UNL     1       0.203   7.524  10.128  1.00  0.00     0.003 C 
BRANCH  23  24
HETATM   24  C5  UNL     1       0.557   7.880   8.679  1.00  0.00     0.040 C 
BRANCH  24  25
HETATM   25  C6  UNL     1       1.906   7.333   8.158  1.00  0.00     0.075 C 
HETATM   26  C7  UNL     1       1.828   7.190   6.633  1.00  0.00     0.048 C 
BRANCH  25  27
HETATM   27  O1  UNL     1       2.115   6.020   8.696  1.00  0.00    -0.388 OA
HETATM   28  H14 UNL     1       2.509   6.171   9.579  1.00  0.00     0.210 HD
ENDBRANCH  25  27
BRANCH  25  29
HETATM   29  C8  UNL     1       3.123   8.206   8.530  1.00  0.00     0.201 C 
BRANCH  29  30
HETATM   30  O2  UNL     1       3.316   9.226   7.548  1.00  0.00    -0.398 OA
HETATM   31  H17 UNL     1       4.080   9.755   7.840  1.00  0.00     0.209 HD
ENDBRANCH  29  30
ENDBRANCH  25  29
ENDBRANCH  24  25
ENDBRANCH  23  24
ENDBRANCH  22  23
ENDBRANCH  20  22
ENDBRANCH   1  20
BRANCH   2  32
HETATM   32  O3  UNL     1      -0.362   5.609  13.032  1.00  0.00    -0.393 OA
HETATM   33  H20 UNL     1      -0.245   4.642  13.042  1.00  0.00     0.210 HD
ENDBRANCH   2  32
BRANCH   3  34
HETATM   34  O4  UNL     1      -2.944   3.857  13.211  1.00  0.00    -0.392 OA
HETATM   35  H22 UNL     1      -3.287   3.365  13.975  1.00  0.00     0.210 HD
ENDBRANCH   3  34
BRANCH   5  36
HETATM   36  O5  UNL     1      -4.485   5.643  15.863  1.00  0.00    -0.389 OA
HETATM   37  H24 UNL     1      -4.292   4.693  15.935  1.00  0.00     0.210 HD
ENDBRANCH   5  36
BRANCH   7  38
HETATM   38  O6  UNL     1      -7.825   3.838  13.045  1.00  0.00    -0.395 OA
HETATM   39  H28 UNL     1      -8.697   4.045  12.667  1.00  0.00     0.210 HD
ENDBRANCH   7  38
BRANCH  10  40
HETATM   40  O7  UNL     1     -11.268   6.488  14.291  1.00  0.00    -0.396 OA
HETATM   41  H33 UNL     1     -11.980   6.977  14.736  1.00  0.00     0.210 HD
ENDBRANCH  10  40
TORSDOF 13
ENDMDL
