MODEL 1
REMARK minimizedAffinity -9.96309566
REMARK  4 active torsions:
REMARK  status: ('A' for Active; 'I' for Inactive)
REMARK    1  A    between atoms: C4_4  and  C5_5 
REMARK    2  A    between atoms: C22_22  and  C23_23 
REMARK    3  A    between atoms: C23_23  and  O2_25 
REMARK    4  A    between atoms: C28_30  and  O3_31 
ROOT
HETATM    1  C5  UNL     1      -2.079  50.063 -24.253  1.00  0.00     0.032 C 
HETATM    2  C6  UNL     1      -3.259  49.734 -23.289  1.00  0.00     0.014 C 
HETATM    3  C7  UNL     1      -4.168  48.561 -23.705  1.00  0.00     0.007 C 
HETATM    4  C8  UNL     1      -5.300  48.309 -22.707  1.00  0.00     0.007 C 
HETATM    5  C9  UNL     1      -4.812  48.219 -21.250  1.00  0.00     0.007 C 
HETATM    6  C10 UNL     1      -5.920  47.788 -20.235  1.00  0.00    -0.018 C 
HETATM    7  C11 UNL     1      -7.141  48.736 -20.199  1.00  0.00     0.020 C 
HETATM    8  C12 UNL     1      -6.492  46.389 -20.375  1.00  0.00    -0.020 C 
HETATM    9  C13 UNL     1      -6.630  45.789 -19.178  1.00  0.00    -0.021 C 
HETATM   10  C14 UNL     1      -6.056  46.613 -18.041  1.00  0.00    -0.026 C 
HETATM   11  C15 UNL     1      -7.130  47.291 -17.189  1.00  0.00     0.019 C 
HETATM   12  C16 UNL     1      -5.183  45.735 -17.128  1.00  0.00     0.019 C 
HETATM   13  C17 UNL     1      -5.182  47.564 -18.886  1.00  0.00     0.009 C 
HETATM   14  C18 UNL     1      -4.616  48.851 -18.313  1.00  0.00     0.007 C 
HETATM   15  C19 UNL     1      -3.543  49.383 -19.289  1.00  0.00     0.011 C 
HETATM   16  C20 UNL     1      -3.983  49.504 -20.799  1.00  0.00    -0.021 C 
HETATM   17  C21 UNL     1      -4.841  50.803 -20.873  1.00  0.00     0.017 C 
HETATM   18  C22 UNL     1      -2.724  49.643 -21.799  1.00  0.00     0.057 C 
HETATM   19  C24 UNL     1      -1.816  50.899 -21.515  1.00  0.00     0.023 C 
HETATM   20  C25 UNL     1      -1.893  52.012 -22.559  1.00  0.00     0.022 C 
HETATM   21  C26 UNL     1      -1.599  51.531 -24.002  1.00  0.00     0.060 C 
HETATM   22  C27 UNL     1      -0.128  51.690 -24.383  1.00  0.00     0.081 C 
HETATM   23  C28 UNL     1      -0.054  53.120 -24.858  1.00  0.00     0.267 C 
HETATM   24  O4  UNL     1      -1.301  53.383 -25.475  1.00  0.00    -0.289 OA
HETATM   25  C29 UNL     1      -2.241  52.557 -24.932  1.00  0.00     0.270 C 
HETATM   26  O5  UNL     1      -3.438  52.672 -25.145  1.00  0.00    -0.264 OA
ENDROOT
BRANCH   1  27
HETATM   27  C4  UNL     1      -2.381  49.775 -25.713  1.00  0.00    -0.018 C 
HETATM   28  C2  UNL     1      -3.378  49.032 -26.235  1.00  0.00    -0.091 C 
HETATM   29  C1  UNL     1      -3.516  48.893 -27.731  1.00  0.00     0.042 C 
HETATM   30  C3  UNL     1      -4.434  48.295 -25.458  1.00  0.00     0.042 C 
ENDBRANCH   1  27
BRANCH  23  31
HETATM   31  O3  UNL     1       1.008  53.316 -25.768  1.00  0.00    -0.371 OA
HETATM   32  H42 UNL     1       0.858  52.702 -26.506  1.00  0.00     0.212 HD
ENDBRANCH  23  31
BRANCH  18  33
HETATM   33  C23 UNL     1      -1.753  48.447 -21.573  1.00  0.00     0.149 C 
HETATM   34  O1  UNL     1      -0.711  48.480 -20.934  1.00  0.00    -0.649 OA
BRANCH  33  35
HETATM   35  O2  UNL     1      -2.102  47.286 -22.142  1.00  0.00    -0.776 OA
HETATM   36  H34 UNL     1      -1.397  46.662 -21.865  1.00  0.00     0.167 HD
ENDBRANCH  33  35
ENDBRANCH  18  33
TORSDOF 4
ENDMDL
