MODEL 1
REMARK minimizedAffinity -6.74599314
REMARK CNNscore 0.691547632
REMARK CNNaffinity 4.84516001
REMARK  12 active torsions:
REMARK  status: ('A' for Active; 'I' for Inactive)
REMARK    1  A    between atoms: C2_2  and  O1_3 
REMARK    2  A    between atoms: C2_2  and  C3_4 
REMARK    3  A    between atoms: C4_5  and  C5_6 
REMARK    4  A    between atoms: C5_6  and  O2_7 
REMARK    5  A    between atoms: C8_10  and  O3_11 
REMARK    6  A    between atoms: O3_11  and  C9_12 
REMARK    7  A    between atoms: C10_14  and  C11_15 
REMARK    8  A    between atoms: C11_15  and  O5_16 
REMARK    9  A    between atoms: C12_17  and  O6_18 
REMARK   10  A    between atoms: C13_19  and  O7_20 
REMARK   11  A    between atoms: C14_21  and  O8_22 
REMARK   12  A    between atoms: C15_23  and  O9_24 
ROOT
HETATM    1  C5  UNL     1      -1.514  50.534 -20.647  1.00  0.00     0.088 C 
HETATM    2  C6  UNL     1      -0.601  50.867 -19.401  1.00  0.00     0.052 C 
HETATM    3  C7  UNL     1      -0.555  52.386 -19.132  1.00  0.00     0.016 C 
HETATM    4  C8  UNL     1      -0.985  50.052 -18.132  1.00  0.00     0.160 C 
HETATM    5  C15 UNL     1      -2.473  49.695 -18.136  1.00  0.00     0.148 C 
HETATM    6  C16 UNL     1      -2.820  48.768 -19.308  1.00  0.00     0.046 C 
HETATM    7  C17 UNL     1      -2.040  49.048 -20.630  1.00  0.00    -0.010 C 
HETATM    8  C18 UNL     1      -0.877  48.033 -20.772  1.00  0.00     0.018 C 
HETATM    9  C19 UNL     1      -3.004  48.746 -21.810  1.00  0.00     0.018 C 
ENDROOT
BRANCH   4  10
HETATM   10  O3  UNL     1      -0.684  50.727 -16.897  1.00  0.00    -0.350 OA
BRANCH  10  11
HETATM   11  C9  UNL     1      -0.067  49.884 -15.920  1.00  0.00     0.292 C 
HETATM   12  O4  UNL     1      -0.991  49.501 -14.906  1.00  0.00    -0.348 OA
HETATM   13  C10 UNL     1      -1.143  50.411 -13.814  1.00  0.00     0.179 C 
HETATM   14  C12 UNL     1      -0.633  51.837 -14.080  1.00  0.00     0.180 C 
HETATM   15  C13 UNL     1       0.839  51.810 -14.520  1.00  0.00     0.183 C 
HETATM   16  C14 UNL     1       1.193  50.572 -15.356  1.00  0.00     0.204 C 
BRANCH  13  17
HETATM   17  C11 UNL     1      -2.631  50.410 -13.433  1.00  0.00     0.198 C 
BRANCH  17  18
HETATM   18  O5  UNL     1      -3.340  49.337 -14.044  1.00  0.00    -0.398 OA
HETATM   19  H18 UNL     1      -3.420  49.553 -14.991  1.00  0.00     0.209 HD
ENDBRANCH  17  18
ENDBRANCH  13  17
BRANCH  14  20
HETATM   20  O6  UNL     1      -0.739  52.655 -12.904  1.00  0.00    -0.390 OA
HETATM   21  H20 UNL     1      -1.679  52.631 -12.628  1.00  0.00     0.210 HD
ENDBRANCH  14  20
BRANCH  15  22
HETATM   22  O7  UNL     1       1.109  53.004 -15.277  1.00  0.00    -0.390 OA
HETATM   23  H22 UNL     1       2.062  53.172 -15.202  1.00  0.00     0.210 HD
ENDBRANCH  15  22
BRANCH  16  24
HETATM   24  O8  UNL     1       1.942  49.665 -14.529  1.00  0.00    -0.388 OA
HETATM   25  H24 UNL     1       2.145  48.877 -15.061  1.00  0.00     0.210 HD
ENDBRANCH  16  24
ENDBRANCH  10  11
ENDBRANCH   4  10
BRANCH   5  26
HETATM   26  O9  UNL     1      -2.829  49.027 -16.924  1.00  0.00    -0.393 OA
HETATM   27  H26 UNL     1      -2.548  49.631 -16.208  1.00  0.00     0.210 HD
ENDBRANCH   5  26
BRANCH   1  28
HETATM   28  C4  UNL     1      -0.879  50.904 -21.981  1.00  0.00     0.010 C 
HETATM   29  C3  UNL     1      -1.314  51.784 -22.900  1.00  0.00     0.003 C 
BRANCH  29  30
HETATM   30  C2  UNL     1      -0.689  52.107 -24.229  1.00  0.00     0.136 C 
HETATM   31  C1  UNL     1       0.701  52.732 -24.193  1.00  0.00     0.043 C 
BRANCH  30  32
HETATM   32  O1  UNL     1      -0.626  50.875 -24.945  1.00  0.00    -0.392 OA
HETATM   33  H5  UNL     1      -0.190  51.055 -25.795  1.00  0.00     0.210 HD
ENDBRANCH  30  32
ENDBRANCH  29  30
ENDBRANCH   1  28
BRANCH   1  34
HETATM   34  O2  UNL     1      -2.639  51.436 -20.580  1.00  0.00    -0.385 OA
HETATM   35  H8  UNL     1      -3.468  50.940 -20.464  1.00  0.00     0.211 HD
ENDBRANCH   1  34
TORSDOF 12
ENDMDL
