MODEL 1
REMARK minimizedAffinity -9.0167942
REMARK CNNscore 0.874197006
REMARK CNNaffinity 6.31490707
REMARK  8 active torsions:
REMARK  status: ('A' for Active; 'I' for Inactive)
REMARK    1  A    between atoms: C3_3  and  C4_4 
REMARK    2  A    between atoms: C4_4  and  O1_5 
REMARK    3  A    between atoms: C6_9  and  C7_10 
REMARK    4  A    between atoms: C7_10  and  O4_12 
REMARK    5  A    between atoms: C7_10  and  C9_13 
REMARK    6  A    between atoms: C12_16  and  O5_17 
REMARK    7  A    between atoms: C15_20  and  O6_21 
REMARK    8  A    between atoms: C16_22  and  O7_23 
ROOT
HETATM    1  C9  UNL     1      -2.916  49.687 -21.562  1.00  0.00     0.033 C 
HETATM    2  C10 UNL     1      -3.235  48.167 -21.702  1.00  0.00     0.011 C 
HETATM    3  C11 UNL     1      -2.910  47.490 -20.357  1.00  0.00     0.039 C 
HETATM    4  C12 UNL     1      -2.653  48.653 -19.406  1.00  0.00     0.070 C 
HETATM    5  C13 UNL     1      -1.856  48.309 -18.113  1.00  0.00     0.028 C 
HETATM    6  C14 UNL     1      -2.719  47.424 -17.172  1.00  0.00     0.043 C 
HETATM    7  C15 UNL     1      -2.321  47.407 -15.700  1.00  0.00     0.154 C 
HETATM    8  C16 UNL     1      -2.036  48.839 -15.182  1.00  0.00     0.098 C 
HETATM    9  C17 UNL     1      -1.801  48.828 -13.655  1.00  0.00     0.042 C 
HETATM   10  C18 UNL     1      -1.221  50.135 -13.098  1.00  0.00     0.010 C 
HETATM   11  C19 UNL     1      -1.252  51.294 -14.077  1.00  0.00     0.079 C 
HETATM   12  C20 UNL     1      -0.551  50.893 -15.357  1.00  0.00     0.138 C 
HETATM   13  O8  UNL     1       0.271  51.656 -15.873  1.00  0.00    -0.297 OA
HETATM   14  C21 UNL     1      -0.868  49.505 -15.964  1.00  0.00     0.054 C 
HETATM   15  C22 UNL     1       0.477  48.728 -15.809  1.00  0.00     0.027 C 
HETATM   16  C23 UNL     1      -1.195  49.606 -17.500  1.00  0.00     0.011 C 
HETATM   17  C24 UNL     1      -1.893  50.900 -17.989  1.00  0.00     0.007 C 
HETATM   18  C25 UNL     1      -1.915  51.041 -19.531  1.00  0.00     0.013 C 
HETATM   19  C26 UNL     1      -1.954  49.703 -20.311  1.00  0.00    -0.006 C 
HETATM   20  C27 UNL     1      -0.518  49.287 -20.728  1.00  0.00     0.019 C 
ENDROOT
BRANCH   1  21
HETATM   21  C7  UNL     1      -2.515  50.394 -22.908  1.00  0.00     0.085 C 
HETATM   22  C8  UNL     1      -3.113  51.812 -22.969  1.00  0.00     0.049 C 
BRANCH  21  23
HETATM   23  C6  UNL     1      -3.012  49.560 -24.158  1.00  0.00     0.170 C 
HETATM   24  O3  UNL     1      -2.562  50.188 -25.380  1.00  0.00    -0.309 OA
HETATM   25  C5  UNL     1      -2.937  49.708 -26.591  1.00  0.00     0.292 C 
HETATM   26  C3  UNL     1      -4.110  48.791 -26.617  1.00  0.00     0.042 C 
HETATM   27  O2  UNL     1      -2.354  50.048 -27.613  1.00  0.00    -0.260 OA
HETATM   28  C2  UNL     1      -4.901  48.686 -25.526  1.00  0.00    -0.067 C 
HETATM   29  C1  UNL     1      -6.180  47.896 -25.461  1.00  0.00     0.044 C 
HETATM   30  C28 UNL     1      -4.532  49.402 -24.248  1.00  0.00     0.070 C 
BRANCH  26  31
HETATM   31  C4  UNL     1      -4.392  48.147 -27.947  1.00  0.00     0.209 C 
BRANCH  31  32
HETATM   32  O1  UNL     1      -4.545  49.125 -28.975  1.00  0.00    -0.396 OA
HETATM   33  H6  UNL     1      -4.265  49.992 -28.633  1.00  0.00     0.209 HD
ENDBRANCH  31  32
ENDBRANCH  26  31
ENDBRANCH  21  23
BRANCH  21  34
HETATM   34  O4  UNL     1      -1.086  50.516 -22.968  1.00  0.00    -0.387 OA
HETATM   35  H11 UNL     1      -0.850  51.252 -23.561  1.00  0.00     0.210 HD
ENDBRANCH  21  34
ENDBRANCH   1  21
BRANCH   4  36
HETATM   36  O5  UNL     1      -3.968  49.158 -19.078  1.00  0.00    -0.389 OA
HETATM   37  H17 UNL     1      -4.017  49.384 -18.132  1.00  0.00     0.210 HD
ENDBRANCH   4  36
BRANCH   7  38
HETATM   38  O6  UNL     1      -1.237  46.508 -15.484  1.00  0.00    -0.392 OA
HETATM   39  H22 UNL     1      -1.456  45.670 -15.929  1.00  0.00     0.210 HD
ENDBRANCH   7  38
BRANCH   8  40
HETATM   40  O7  UNL     1      -3.235  49.612 -15.434  1.00  0.00    -0.386 OA
HETATM   41  H23 UNL     1      -3.927  49.328 -14.815  1.00  0.00     0.210 HD
ENDBRANCH   8  40
TORSDOF 8
ENDMDL
