MODEL 1
REMARK minimizedAffinity -7.98853111
REMARK CNNscore 0.495437503
REMARK CNNaffinity 5.72386789
REMARK  11 active torsions:
REMARK  status: ('A' for Active; 'I' for Inactive)
REMARK    1  A    between atoms: C3_3  and  O1_4 
REMARK    2  A    between atoms: N1_14  and  O2_16 
REMARK    3  A    between atoms: O2_16  and  C13_17 
REMARK    4  A    between atoms: C13_17  and  C14_18 
REMARK       I    between atoms: C14_18  and  N2_20 
REMARK    5  A    between atoms: N2_20  and  C15_21 
REMARK    6  A    between atoms: C15_21  and  C16_22 
REMARK    7  A    between atoms: C15_21  and  C19_27 
REMARK    8  A    between atoms: C16_22  and  O5_24 
REMARK    9  A    between atoms: O5_24  and  C17_25 
REMARK   10  A    between atoms: C19_27  and  O6_28 
REMARK   11  A    between atoms: C19_27  and  C20_29 
ROOT
HETATM    1  C1  UNL     1      -3.549  52.214 -22.995  1.00  0.00     0.015 C 
HETATM    2  C2  UNL     1      -4.010  51.237 -22.466  1.00  0.00    -0.078 C 
HETATM    3  C3  UNL     1      -4.575  50.045 -21.794  1.00  0.00     0.128 C 
HETATM    4  C4  UNL     1      -6.065  50.287 -21.530  1.00  0.00     0.052 C 
HETATM    5  C5  UNL     1      -6.773  49.878 -22.822  1.00  0.00     0.010 C 
HETATM    6  C6  UNL     1      -5.787  48.997 -23.621  1.00  0.00     0.002 C 
HETATM    7  C7  UNL     1      -6.397  47.702 -24.193  1.00  0.00    -0.004 C 
HETATM    8  C8  UNL     1      -7.460  47.992 -25.261  1.00  0.00     0.010 C 
HETATM    9  C9  UNL     1      -8.314  46.768 -25.548  1.00  0.00     0.035 C 
HETATM   10  C10 UNL     1      -9.099  46.488 -24.300  1.00  0.00    -0.069 C 
HETATM   11  C11 UNL     1     -10.435  46.653 -24.298  1.00  0.00     0.030 C 
HETATM   12  C12 UNL     1     -11.244  46.499 -23.053  1.00  0.00     0.032 C 
HETATM   13  N1  UNL     1     -12.538  46.566 -22.969  1.00  0.00    -0.271 N 
ATOM     14  H1  UNL     1     -13.057  46.474 -22.095  1.00  0.00     0.194 HD
HETATM   15  C26 UNL     1     -10.505  46.230 -21.759  1.00  0.00     0.060 C 
HETATM   16  C27 UNL     1      -9.042  46.649 -21.818  1.00  0.00     0.020 C 
HETATM   17  C28 UNL     1      -8.288  46.117 -23.065  1.00  0.00    -0.016 C 
HETATM   18  C29 UNL     1      -8.247  44.565 -22.992  1.00  0.00     0.020 C 
HETATM   19  C30 UNL     1      -6.779  46.620 -23.134  1.00  0.00     0.002 C 
HETATM   20  C31 UNL     1      -6.140  46.901 -21.756  1.00  0.00     0.007 C 
HETATM   21  C32 UNL     1      -4.711  47.426 -21.879  1.00  0.00     0.014 C 
HETATM   22  C33 UNL     1      -4.567  48.756 -22.686  1.00  0.00     0.003 C 
HETATM   23  C34 UNL     1      -3.256  48.627 -23.496  1.00  0.00     0.020 C 
ENDROOT
BRANCH   3  24
HETATM   24  O1  UNL     1      -3.847  49.870 -20.588  1.00  0.00    -0.377 OA
HETATM   25  H2  UNL     1      -4.452  49.550 -19.901  1.00  0.00     0.211 HD
ENDBRANCH   3  24
BRANCH  13  26
HETATM   26  O2  UNL     1     -13.142  46.780 -24.220  1.00  0.00    -0.271 OA
BRANCH  26  27
HETATM   27  C13 UNL     1     -14.472  47.218 -23.999  1.00  0.00     0.303 C 
BRANCH  27  28
HETATM   28  C14 UNL     1     -15.503  46.153 -24.365  1.00  0.00     0.244 C 
HETATM   29  O3  UNL     1     -15.289  45.200 -25.106  1.00  0.00    -0.271 OA
HETATM   30  N2  UNL     1     -16.727  46.356 -23.756  1.00  0.00    -0.343 N 
HETATM   31  H16 UNL     1     -16.963  47.309 -23.493  1.00  0.00     0.163 HD
BRANCH  30  32
HETATM   32  C15 UNL     1     -17.895  45.513 -24.091  1.00  0.00     0.217 C 
BRANCH  32  33
HETATM   33  C16 UNL     1     -18.822  46.227 -25.090  1.00  0.00     0.284 C 
HETATM   34  O4  UNL     1     -19.499  47.214 -24.825  1.00  0.00    -0.263 OA
BRANCH  33  35
HETATM   35  O5  UNL     1     -18.758  45.656 -26.333  1.00  0.00    -0.320 OA
BRANCH  35  36
HETATM   36  C17 UNL     1     -18.403  44.267 -26.367  1.00  0.00     0.174 C 
HETATM   37  C18 UNL     1     -19.381  43.497 -27.235  1.00  0.00     0.034 C 
ENDBRANCH  35  36
ENDBRANCH  33  35
ENDBRANCH  32  33
BRANCH  32  38
HETATM   38  C19 UNL     1     -18.642  45.185 -22.779  1.00  0.00     0.183 C 
BRANCH  38  39
HETATM   39  O6  UNL     1     -18.668  43.766 -22.553  1.00  0.00    -0.388 OA
HETATM   40  H24 UNL     1     -19.043  43.633 -21.663  1.00  0.00     0.210 HD
ENDBRANCH  38  39
BRANCH  38  41
HETATM   41  C20 UNL     1     -18.199  45.925 -21.535  1.00  0.00    -0.027 A 
HETATM   42  C21 UNL     1     -16.905  45.788 -21.013  1.00  0.00     0.010 A 
HETATM   43  C22 UNL     1     -16.529  46.470 -19.854  1.00  0.00     0.001 A 
HETATM   44  C23 UNL     1     -17.445  47.282 -19.193  1.00  0.00     0.000 A 
HETATM   45  C24 UNL     1     -18.733  47.430 -19.700  1.00  0.00     0.001 A 
HETATM   46  C25 UNL     1     -19.106  46.761 -20.866  1.00  0.00     0.010 A 
ENDBRANCH  38  41
ENDBRANCH  32  38
ENDBRANCH  30  32
ENDBRANCH  27  28
ENDBRANCH  26  27
ENDBRANCH  13  26
TORSDOF 11
ENDMDL
