MODEL 1
REMARK minimizedAffinity -10.4140768
REMARK  4 active torsions:
REMARK  status: ('A' for Active; 'I' for Inactive)
REMARK    1  A    between atoms: C4_4  and  O1_5 
REMARK    2  A    between atoms: C4_4  and  C5_6 
REMARK    3  A    between atoms: C5_6  and  C6_7 
REMARK    4  A    between atoms: C6_7  and  C8_9 
ROOT
HETATM    1  C8  UNL     1      -0.393  51.284 -21.459  1.00  0.00    -0.001 C 
HETATM    2  C9  UNL     1      -0.559  51.779 -19.998  1.00  0.00     0.007 C 
HETATM    3  C10 UNL     1      -1.750  50.986 -19.403  1.00  0.00     0.015 C 
HETATM    4  C11 UNL     1      -2.070  49.887 -20.447  1.00  0.00    -0.013 C 
HETATM    5  C12 UNL     1      -1.097  48.697 -20.155  1.00  0.00     0.021 C 
HETATM    6  C13 UNL     1      -3.469  49.267 -20.465  1.00  0.00    -0.070 C 
HETATM    7  C14 UNL     1      -4.138  49.012 -19.329  1.00  0.00    -0.022 C 
HETATM    8  C15 UNL     1      -5.447  48.301 -19.264  1.00  0.00     0.034 C 
HETATM    9  C16 UNL     1      -6.184  48.127 -20.617  1.00  0.00     0.013 C 
HETATM   10  C17 UNL     1      -7.403  47.139 -20.503  1.00  0.00     0.018 C 
HETATM   11  C18 UNL     1      -8.607  47.713 -21.292  1.00  0.00     0.023 C 
HETATM   12  C19 UNL     1      -7.914  46.904 -19.061  1.00  0.00     0.023 C 
HETATM   13  C20 UNL     1      -7.048  45.759 -21.074  1.00  0.00     0.135 C 
HETATM   14  O2  UNL     1      -7.924  44.981 -21.469  1.00  0.00    -0.297 OA
HETATM   15  C21 UNL     1      -5.603  45.307 -21.055  1.00  0.00     0.080 C 
HETATM   16  C22 UNL     1      -4.582  46.361 -21.488  1.00  0.00     0.017 C 
HETATM   17  C23 UNL     1      -5.167  47.765 -21.770  1.00  0.00    -0.031 C 
HETATM   18  C24 UNL     1      -5.868  47.741 -23.158  1.00  0.00     0.016 C 
HETATM   19  C25 UNL     1      -4.044  48.885 -21.833  1.00  0.00     0.024 C 
HETATM   20  C26 UNL     1      -2.924  48.624 -22.878  1.00  0.00     0.010 C 
HETATM   21  C27 UNL     1      -1.826  49.712 -22.973  1.00  0.00     0.011 C 
HETATM   22  C28 UNL     1      -1.795  50.681 -21.779  1.00  0.00    -0.029 C 
HETATM   23  C29 UNL     1      -2.848  51.820 -21.995  1.00  0.00     0.016 C 
ENDROOT
BRANCH   1  24
HETATM   24  C6  UNL     1       0.365  52.234 -22.437  1.00  0.00    -0.008 C 
HETATM   25  C7  UNL     1       1.027  53.355 -21.614  1.00  0.00     0.010 C 
BRANCH  24  26
HETATM   26  C5  UNL     1      -0.455  52.800 -23.618  1.00  0.00     0.078 C 
BRANCH  26  27
HETATM   27  C4  UNL     1       0.335  53.440 -24.782  1.00  0.00     0.191 A 
HETATM   28  C3  UNL     1       1.000  52.408 -25.613  1.00  0.00     0.054 A 
HETATM   29  C2  UNL     1       0.565  52.451 -26.871  1.00  0.00     0.015 A 
HETATM   30  C1  UNL     1       0.922  51.623 -28.041  1.00  0.00     0.054 C 
HETATM   31  C30 UNL     1      -0.409  53.545 -26.927  1.00  0.00     0.291 A 
HETATM   32  O3  UNL     1      -0.528  54.104 -25.694  1.00  0.00    -0.276 OA
HETATM   33  O4  UNL     1      -1.027  53.891 -27.919  1.00  0.00    -0.260 OA
BRANCH  27  34
HETATM   34  O1  UNL     1       1.347  54.310 -24.321  1.00  0.00    -0.362 OA
HETATM   35  H5  UNL     1       0.889  55.053 -23.895  1.00  0.00     0.213 HD
ENDBRANCH  27  34
ENDBRANCH  26  27
ENDBRANCH  24  26
ENDBRANCH   1  24
TORSDOF 4
ENDMDL
