MODEL 1
REMARK minimizedAffinity -7.11188078
REMARK CNNscore 0.415232509
REMARK CNNaffinity 7.14996719
REMARK  16 active torsions:
REMARK  status: ('A' for Active; 'I' for Inactive)
REMARK    1  A    between atoms: C2_2  and  C3_3 
REMARK    2  A    between atoms: C4_4  and  C6_6 
REMARK    3  A    between atoms: C6_6  and  C7_7 
REMARK    4  A    between atoms: C7_7  and  C9_9 
REMARK    5  A    between atoms: C9_9  and  C10_10 
REMARK    6  A    between atoms: C9_9  and  O3_30 
REMARK    7  A    between atoms: C10_10  and  C11_11 
REMARK    8  A    between atoms: C23_23  and  C25_25 
REMARK    9  A    between atoms: C25_25  and  C26_27 
REMARK   10  A    between atoms: C26_27  and  C27_28 
REMARK   11  A    between atoms: O3_30  and  C28_31 
REMARK   12  A    between atoms: C29_33  and  C30_34 
REMARK   13  A    between atoms: C30_34  and  O5_35 
REMARK   14  A    between atoms: C31_36  and  O6_37 
REMARK   15  A    between atoms: C32_38  and  O7_39 
REMARK   16  A    between atoms: C33_40  and  O8_41 
ROOT
HETATM    1  C9  UNL     1       0.347  52.639 -11.460  1.00  0.00     0.129 C 
ENDROOT
BRANCH   1   2
HETATM    2  C7  UNL     1      -0.258  51.811 -10.295  1.00  0.00     0.014 C 
HETATM    3  C8  UNL     1       0.645  51.780  -9.056  1.00  0.00     0.012 C 
BRANCH   2   4
HETATM    4  C6  UNL     1      -1.697  52.239  -9.953  1.00  0.00     0.040 C 
BRANCH   4   5
HETATM    5  C4  UNL     1      -2.741  51.895 -10.997  1.00  0.00    -0.087 C 
HETATM    6  C3  UNL     1      -2.477  50.969 -11.943  1.00  0.00    -0.025 C 
HETATM    7  C5  UNL     1      -4.074  52.576 -10.835  1.00  0.00     0.043 C 
BRANCH   6   8
HETATM    8  C2  UNL     1      -3.397  50.472 -13.024  1.00  0.00     0.023 C 
HETATM    9  C1  UNL     1      -3.053  51.107 -14.364  1.00  0.00     0.009 C 
ENDBRANCH   6   8
ENDBRANCH   4   5
ENDBRANCH   2   4
ENDBRANCH   1   2
BRANCH   1  10
HETATM   10  C10 UNL     1       1.141  53.928 -11.135  1.00  0.00     0.042 C 
BRANCH  10  11
HETATM   11  C11 UNL     1       1.163  54.468  -9.670  1.00  0.00     0.032 C 
HETATM   12  C12 UNL     1       0.014  55.379  -9.258  1.00  0.00    -0.082 C 
HETATM   13  C13 UNL     1      -1.166  55.653 -10.146  1.00  0.00     0.043 C 
HETATM   14  C14 UNL     1       0.043  55.908  -8.024  1.00  0.00    -0.019 C 
HETATM   15  C15 UNL     1       1.233  55.783  -7.111  1.00  0.00     0.014 C 
HETATM   16  C16 UNL     1       1.098  56.839  -5.987  1.00  0.00     0.013 C 
HETATM   17  C22 UNL     1       2.539  55.961  -7.922  1.00  0.00     0.013 C 
HETATM   18  C17 UNL     1       2.403  57.212  -5.277  1.00  0.00    -0.018 C 
HETATM   19  C18 UNL     1       2.842  58.630  -5.638  1.00  0.00     0.010 C 
HETATM   20  C19 UNL     1       3.506  56.186  -5.519  1.00  0.00     0.009 C 
HETATM   21  C20 UNL     1       3.800  55.859  -6.996  1.00  0.00    -0.012 C 
HETATM   22  C21 UNL     1       4.986  56.679  -7.523  1.00  0.00     0.010 C 
HETATM   23  C23 UNL     1       2.577  55.102  -9.273  1.00  0.00     0.029 C 
HETATM   24  C24 UNL     1       3.034  56.068 -10.401  1.00  0.00     0.025 C 
BRANCH  23  25
HETATM   25  C25 UNL     1       3.604  53.939  -9.179  1.00  0.00     0.142 C 
HETATM   26  O1  UNL     1       3.453  53.006  -8.383  1.00  0.00    -0.297 OA
BRANCH  25  27
HETATM   27  C26 UNL     1       4.828  53.965 -10.067  1.00  0.00     0.148 C 
BRANCH  27  28
HETATM   28  C27 UNL     1       6.076  53.548  -9.348  1.00  0.00     0.238 C 
HETATM   29  O2  UNL     1       7.080  54.258  -9.309  1.00  0.00    -0.306 OA
ENDBRANCH  27  28
ENDBRANCH  25  27
ENDBRANCH  23  25
ENDBRANCH  10  11
ENDBRANCH   1  10
BRANCH   1  30
HETATM   30  O3  UNL     1       1.287  51.758 -12.121  1.00  0.00    -0.353 OA
BRANCH  30  31
HETATM   31  C28 UNL     1       1.358  51.991 -13.536  1.00  0.00     0.292 C 
HETATM   32  O4  UNL     1       0.459  51.107 -14.199  1.00  0.00    -0.348 OA
HETATM   33  C29 UNL     1       0.473  51.205 -15.641  1.00  0.00     0.179 C 
HETATM   34  C31 UNL     1       1.668  51.985 -16.218  1.00  0.00     0.180 C 
HETATM   35  C32 UNL     1       2.971  51.629 -15.491  1.00  0.00     0.183 C 
HETATM   36  C33 UNL     1       2.816  51.698 -13.964  1.00  0.00     0.204 C 
BRANCH  33  37
HETATM   37  C30 UNL     1       0.457  49.759 -16.165  1.00  0.00     0.198 C 
BRANCH  37  38
HETATM   38  O5  UNL     1       0.066  49.737 -17.538  1.00  0.00    -0.398 OA
HETATM   39  H48 UNL     1      -0.679  50.366 -17.617  1.00  0.00     0.209 HD
ENDBRANCH  37  38
ENDBRANCH  33  37
BRANCH  34  40
HETATM   40  O6  UNL     1       1.445  53.402 -16.082  1.00  0.00    -0.390 OA
HETATM   41  H50 UNL     1       2.310  53.806 -16.313  1.00  0.00     0.210 HD
ENDBRANCH  34  40
BRANCH  35  42
HETATM   42  O7  UNL     1       3.985  52.558 -15.923  1.00  0.00    -0.390 OA
HETATM   43  H52 UNL     1       4.847  52.138 -15.724  1.00  0.00     0.210 HD
ENDBRANCH  35  42
BRANCH  36  44
HETATM   44  O8  UNL     1       3.225  50.414 -13.439  1.00  0.00    -0.388 OA
HETATM   45  H54 UNL     1       2.772  50.329 -12.574  1.00  0.00     0.210 HD
ENDBRANCH  36  44
ENDBRANCH  30  31
ENDBRANCH   1  30
TORSDOF 16
ENDMDL
