MODEL 1
REMARK minimizedAffinity -8.34641171
REMARK CNNscore 0.599493504
REMARK CNNaffinity 7.28850365
REMARK  12 active torsions:
REMARK  status: ('A' for Active; 'I' for Inactive)
REMARK    1  A    between atoms: C2_2  and  C3_3 
REMARK    2  A    between atoms: C2_2  and  C9_11 
REMARK    3  A    between atoms: C3_3  and  C4_4 
REMARK    4  A    between atoms: C4_4  and  C5_6 
REMARK    5  A    between atoms: C5_6  and  C6_7 
REMARK    6  A    between atoms: C6_7  and  O2_10 
REMARK    7  A    between atoms: C25_28  and  O4_29 
REMARK    8  A    between atoms: C27_31  and  O5_32 
REMARK    9  A    between atoms: O5_32  and  C28_33 
REMARK   10  A    between atoms: C30_36  and  O7_37 
REMARK   11  A    between atoms: C31_38  and  O8_39 
REMARK   12  A    between atoms: C32_40  and  O9_41 
ROOT
HETATM    1  C9  UNL     1      -4.020   5.604  12.870  1.00  0.00     0.068 C 
HETATM    2  C10 UNL     1      -4.620   4.198  13.089  1.00  0.00     0.133 C 
HETATM    3  O3  UNL     1      -4.040   3.144  12.853  1.00  0.00    -0.298 OA
HETATM    4  C11 UNL     1      -6.028   4.227  13.663  1.00  0.00     0.089 C 
HETATM    5  C12 UNL     1      -6.364   5.724  13.601  1.00  0.00    -0.022 C 
HETATM    6  C13 UNL     1      -6.931   5.996  12.171  1.00  0.00     0.017 C 
HETATM    7  C14 UNL     1      -7.367   6.214  14.700  1.00  0.00     0.024 C 
HETATM    8  C15 UNL     1      -8.817   5.710  14.565  1.00  0.00     0.014 C 
HETATM    9  C16 UNL     1      -9.805   6.541  13.732  1.00  0.00     0.036 C 
HETATM   10  C17 UNL     1     -10.304   7.905  14.219  1.00  0.00    -0.064 C 
HETATM   11  C18 UNL     1      -9.632   8.696  15.099  1.00  0.00    -0.044 C 
HETATM   12  C19 UNL     1      -8.331   8.320  15.784  1.00  0.00     0.071 C 
HETATM   13  C20 UNL     1      -7.290   7.721  14.869  1.00  0.00    -0.075 C 
HETATM   14  C21 UNL     1      -6.303   8.471  14.335  1.00  0.00    -0.022 C 
HETATM   15  C22 UNL     1      -5.109   7.912  13.594  1.00  0.00     0.038 C 
HETATM   16  C23 UNL     1      -4.947   6.398  13.852  1.00  0.00    -0.022 C 
HETATM   17  C24 UNL     1      -4.431   6.199  15.320  1.00  0.00     0.017 C 
HETATM   18  C25 UNL     1     -10.143  10.062  15.536  1.00  0.00     0.150 C 
HETATM   19  C26 UNL     1     -11.296  10.621  14.718  1.00  0.00     0.069 C 
HETATM   20  C27 UNL     1     -12.317   9.541  14.409  1.00  0.00     0.139 C 
HETATM   21  C33 UNL     1     -11.660   8.370  13.594  1.00  0.00     0.003 C 
HETATM   22  C34 UNL     1     -11.384   8.844  12.149  1.00  0.00     0.022 C 
HETATM   23  C35 UNL     1     -12.713   7.234  13.518  1.00  0.00     0.022 C 
ENDROOT
BRANCH  20  24
HETATM   24  O5  UNL     1     -12.895   9.007  15.610  1.00  0.00    -0.352 OA
BRANCH  24  25
HETATM   25  C28 UNL     1     -14.217   9.468  15.899  1.00  0.00     0.291 C 
HETATM   26  O6  UNL     1     -14.775  10.074  14.735  1.00  0.00    -0.356 OA
HETATM   27  C29 UNL     1     -16.155  10.404  14.913  1.00  0.00     0.205 C 
HETATM   28  C30 UNL     1     -16.471  11.014  16.286  1.00  0.00     0.173 C 
HETATM   29  C31 UNL     1     -15.209  11.568  16.968  1.00  0.00     0.182 C 
HETATM   30  C32 UNL     1     -14.096  10.510  17.037  1.00  0.00     0.204 C 
BRANCH  28  31
HETATM   31  O7  UNL     1     -17.476  12.019  16.128  1.00  0.00    -0.391 OA
HETATM   32  H44 UNL     1     -17.321  12.699  16.814  1.00  0.00     0.210 HD
ENDBRANCH  28  31
BRANCH  29  33
HETATM   33  O8  UNL     1     -14.747  12.744  16.284  1.00  0.00    -0.390 OA
HETATM   34  H46 UNL     1     -14.615  12.514  15.342  1.00  0.00     0.210 HD
ENDBRANCH  29  33
BRANCH  30  35
HETATM   35  O9  UNL     1     -14.166   9.826  18.302  1.00  0.00    -0.388 OA
HETATM   36  H48 UNL     1     -13.614  10.333  18.922  1.00  0.00     0.210 HD
ENDBRANCH  30  35
ENDBRANCH  24  25
ENDBRANCH  20  24
BRANCH  18  37
HETATM   37  O4  UNL     1      -9.080  11.018  15.449  1.00  0.00    -0.391 OA
HETATM   38  H36 UNL     1      -9.408  11.841  15.845  1.00  0.00     0.210 HD
ENDBRANCH  18  37
BRANCH   1  39
HETATM   39  C2  UNL     1      -2.475   5.636  13.050  1.00  0.00     0.000 C 
HETATM   40  C1  UNL     1      -2.048   5.391  14.503  1.00  0.00     0.011 C 
BRANCH  39  41
HETATM   41  C3  UNL     1      -1.901   7.009  12.613  1.00  0.00     0.083 C 
BRANCH  41  42
HETATM   42  C4  UNL     1      -0.438   6.994  12.184  1.00  0.00     0.130 C 
HETATM   43  O1  UNL     1       0.441   7.156  13.037  1.00  0.00    -0.298 OA
BRANCH  42  44
HETATM   44  C5  UNL     1      -0.078   6.772  10.721  1.00  0.00     0.115 C 
BRANCH  44  45
HETATM   45  C6  UNL     1       0.646   7.929  10.013  1.00  0.00     0.057 C 
HETATM   46  C7  UNL     1      -0.095   8.464   8.790  1.00  0.00     0.045 C 
HETATM   47  C8  UNL     1       2.041   7.447   9.588  1.00  0.00     0.045 C 
BRANCH  45  48
HETATM   48  O2  UNL     1       0.835   9.000  10.937  1.00  0.00    -0.390 OA
HETATM   49  H15 UNL     1       1.241   9.749  10.466  1.00  0.00     0.210 HD
ENDBRANCH  45  48
ENDBRANCH  44  45
ENDBRANCH  42  44
ENDBRANCH  41  42
ENDBRANCH  39  41
ENDBRANCH   1  39
TORSDOF 12
ENDMDL
