MODEL 1
REMARK minimizedAffinity -7.24190235
REMARK CNNscore 0.77807647
REMARK CNNaffinity 6.91451836
REMARK  15 active torsions:
REMARK  status: ('A' for Active; 'I' for Inactive)
REMARK    1  A    between atoms: C2_2  and  C4_4 
REMARK    2  A    between atoms: C4_4  and  C5_5 
REMARK    3  A    between atoms: C4_4  and  C28_40 
REMARK    4  A    between atoms: C6_6  and  C7_7 
REMARK    5  A    between atoms: C7_7  and  C8_8 
REMARK    6  A    between atoms: C7_7  and  C9_14 
REMARK    7  A    between atoms: C8_8  and  O1_9 
REMARK    8  A    between atoms: O1_9  and  S1_10 
REMARK    9  A    between atoms: S1_10  and  O4_13 
REMARK   10  A    between atoms: C17_22  and  O5_23 
REMARK   11  A    between atoms: C18_24  and  O6_25 
REMARK   12  A    between atoms: O6_25  and  S2_26 
REMARK   13  A    between atoms: S2_26  and  O9_29 
REMARK   14  A    between atoms: C19_30  and  O10_31 
REMARK   15  A    between atoms: C28_40  and  O11_41 
ROOT
HETATM    1  C9  UNL     1      14.146  -6.628   3.335  1.00  0.00     0.004 C 
HETATM    2  C10 UNL     1      13.646  -6.545   1.868  1.00  0.00     0.006 C 
HETATM    3  C11 UNL     1      14.013  -5.134   1.373  1.00  0.00     0.006 C 
HETATM    4  C12 UNL     1      14.817  -4.527   2.522  1.00  0.00    -0.002 C 
HETATM    5  C13 UNL     1      14.989  -3.003   2.572  1.00  0.00    -0.005 C 
HETATM    6  C14 UNL     1      15.634  -2.475   1.276  1.00  0.00     0.006 C 
HETATM    7  C15 UNL     1      16.766  -1.485   1.511  1.00  0.00     0.008 C 
HETATM    8  C16 UNL     1      16.406  -0.420   2.558  1.00  0.00     0.026 C 
HETATM    9  C17 UNL     1      17.535   0.639   2.643  1.00  0.00     0.156 C 
HETATM   10  C18 UNL     1      17.339   1.547   3.855  1.00  0.00     0.202 C 
HETATM   11  C19 UNL     1      17.461   0.754   5.162  1.00  0.00     0.151 C 
HETATM   12  C20 UNL     1      17.048  -0.720   5.042  1.00  0.00     0.044 C 
HETATM   13  C21 UNL     1      15.984  -1.039   3.951  1.00  0.00    -0.032 C 
HETATM   14  C22 UNL     1      14.642  -0.387   4.386  1.00  0.00     0.016 C 
HETATM   15  C23 UNL     1      15.816  -2.610   3.833  1.00  0.00    -0.001 C 
HETATM   16  C24 UNL     1      15.294  -3.296   5.123  1.00  0.00     0.006 C 
HETATM   17  C25 UNL     1      15.075  -4.812   4.975  1.00  0.00     0.010 C 
HETATM   18  C26 UNL     1      14.160  -5.137   3.788  1.00  0.00    -0.036 C 
HETATM   19  C27 UNL     1      12.743  -4.576   4.055  1.00  0.00     0.016 C 
ENDROOT
BRANCH   1  20
HETATM   20  C7  UNL     1      13.527  -7.767   4.195  1.00  0.00     0.038 C 
BRANCH  20  21
HETATM   21  C6  UNL     1      13.686  -7.434   5.675  1.00  0.00    -0.023 C 
HETATM   22  C5  UNL     1      12.752  -6.985   6.532  1.00  0.00    -0.023 C 
BRANCH  22  23
HETATM   23  C4  UNL     1      13.024  -6.717   8.002  1.00  0.00     0.035 C 
BRANCH  23  24
HETATM   24  C2  UNL     1      11.802  -6.017   8.670  1.00  0.00    -0.013 C 
HETATM   25  C1  UNL     1      11.457  -6.655  10.025  1.00  0.00     0.010 C 
HETATM   26  C3  UNL     1      12.021  -4.514   8.883  1.00  0.00     0.010 C 
ENDBRANCH  23  24
BRANCH  23  27
HETATM   27  C28 UNL     1      14.330  -5.905   8.124  1.00  0.00     0.173 C 
BRANCH  27  28
HETATM   28  O11 UNL     1      14.865  -5.981   9.443  1.00  0.00    -0.400 OA
HETATM   29  H48 UNL     1      15.083  -6.913   9.614  1.00  0.00     0.209 HD
ENDBRANCH  27  28
ENDBRANCH  23  27
ENDBRANCH  22  23
ENDBRANCH  20  21
BRANCH  20  30
HETATM   30  C8  UNL     1      12.126  -8.292   3.834  1.00  0.00     0.201 C 
BRANCH  30  31
HETATM   31  O1  UNL     1      11.913  -9.599   4.334  1.00  0.00    -0.263 OA
BRANCH  31  32
HETATM   32  S1  UNL     1      10.936 -10.572   3.481  1.00  0.00     0.240 S 
HETATM   33  O2  UNL     1      11.193 -11.930   3.903  1.00  0.00    -0.579 OA
HETATM   34  O3  UNL     1       9.608 -10.006   3.462  1.00  0.00    -0.579 OA
BRANCH  32  35
HETATM   35  O4  UNL     1      11.554 -10.446   2.000  1.00  0.00    -0.274 OA
HETATM   36  H14 UNL     1      12.394 -10.946   1.983  1.00  0.00     0.234 HD
ENDBRANCH  32  35
ENDBRANCH  31  32
ENDBRANCH  30  31
ENDBRANCH  20  30
ENDBRANCH   1  20
BRANCH   9  37
HETATM   37  O5  UNL     1      18.821   0.012   2.717  1.00  0.00    -0.392 OA
HETATM   38  H28 UNL     1      19.486   0.725   2.745  1.00  0.00     0.210 HD
ENDBRANCH   9  37
BRANCH  11  39
HETATM   39  O10 UNL     1      16.655   1.389   6.162  1.00  0.00    -0.393 OA
HETATM   40  H32 UNL     1      17.123   2.198   6.437  1.00  0.00     0.210 HD
ENDBRANCH  11  39
BRANCH  10  41
HETATM   41  O6  UNL     1      18.356   2.555   3.864  1.00  0.00    -0.253 OA
BRANCH  41  42
HETATM   42  S2  UNL     1      18.282   3.709   5.002  1.00  0.00     0.240 S 
HETATM   43  O7  UNL     1      16.905   4.112   5.155  1.00  0.00    -0.579 OA
HETATM   44  O8  UNL     1      19.079   3.303   6.135  1.00  0.00    -0.579 OA
BRANCH  42  45
HETATM   45  O9  UNL     1      19.039   4.951   4.313  1.00  0.00    -0.274 OA
HETATM   46  H30 UNL     1      18.922   5.729   4.895  1.00  0.00     0.234 HD
ENDBRANCH  42  45
ENDBRANCH  41  42
ENDBRANCH  10  41
TORSDOF 15
ENDMDL
