MODEL 1
REMARK minimizedAffinity -9.62909698
REMARK CNNscore 0.604007781
REMARK CNNaffinity 7.70087385
REMARK  13 active torsions:
REMARK  status: ('A' for Active; 'I' for Inactive)
REMARK    1  A    between atoms: C19_21  and  O3_22 
REMARK    2  A    between atoms: C19_21  and  C20_23 
REMARK    3  A    between atoms: C20_23  and  C21_25 
REMARK    4  A    between atoms: C21_25  and  O5_26 
REMARK    5  A    between atoms: O5_26  and  C22_27 
REMARK    6  A    between atoms: C22_27  and  C23_29 
REMARK    7  A    between atoms: C23_29  and  C24_30 
REMARK    8  A    between atoms: C24_30  and  C25_31 
REMARK       I    between atoms: C25_31  and  N1_33 
REMARK    9  A    between atoms: N1_33  and  C26_34 
REMARK   10  A    between atoms: C26_34  and  C27_35 
REMARK   11  A    between atoms: C26_34  and  C34_42 
REMARK   12  A    between atoms: C27_35  and  C28_36 
REMARK   13  A    between atoms: C34_42  and  O9_44 
ROOT
HETATM    1  C20 UNL     1      -6.815   3.259  12.705  1.00  0.00     0.185 C 
HETATM    2  O4  UNL     1      -7.541   2.505  13.360  1.00  0.00    -0.292 OA
ENDROOT
BRANCH   1   3
HETATM    3  C19 UNL     1      -6.790   4.804  12.955  1.00  0.00     0.128 C 
HETATM    4  C14 UNL     1      -7.659   5.291  14.171  1.00  0.00     0.005 C 
HETATM    5  C13 UNL     1      -7.083   6.581  14.799  1.00  0.00     0.091 C 
HETATM    6  C15 UNL     1      -7.745   4.220  15.282  1.00  0.00     0.019 C 
HETATM    7  C16 UNL     1      -9.083   5.569  13.579  1.00  0.00     0.002 C 
HETATM    8  C12 UNL     1      -8.024   7.128  15.845  1.00  0.00     0.133 C 
HETATM    9  C11 UNL     1      -9.479   7.332  15.442  1.00  0.00     0.072 C 
HETATM   10  O2  UNL     1      -7.623   7.383  16.980  1.00  0.00    -0.297 OA
HETATM   11  C2  UNL     1      -9.991   8.793  15.749  1.00  0.00    -0.009 C 
HETATM   12  C10 UNL     1      -9.698   6.945  13.962  1.00  0.00     0.003 C 
HETATM   13  C1  UNL     1     -10.426   8.870  17.232  1.00  0.00     0.021 C 
HETATM   14  C3  UNL     1      -8.907   9.868  15.459  1.00  0.00     0.022 C 
HETATM   15  C7  UNL     1     -11.214   9.108  14.878  1.00  0.00    -0.067 C 
HETATM   16  C4  UNL     1      -9.425  11.301  15.573  1.00  0.00     0.084 C 
HETATM   17  C5  UNL     1     -10.669  11.512  14.748  1.00  0.00     0.149 C 
HETATM   18  O1  UNL     1     -11.017  12.625  14.362  1.00  0.00    -0.293 OA
HETATM   19  C6  UNL     1     -11.513  10.338  14.424  1.00  0.00     0.053 C 
HETATM   20  C8  UNL     1     -12.040   7.920  14.476  1.00  0.00     0.035 C 
HETATM   21  C9  UNL     1     -11.208   6.976  13.604  1.00  0.00     0.010 C 
HETATM   22  C17 UNL     1      -8.948   5.454  12.049  1.00  0.00     0.009 C 
HETATM   23  C18 UNL     1      -7.456   5.506  11.763  1.00  0.00     0.047 C 
BRANCH   3  24
HETATM   24  O3  UNL     1      -5.468   5.322  13.016  1.00  0.00    -0.381 OA
HETATM   25  H25 UNL     1      -5.032   5.020  13.841  1.00  0.00     0.211 HD
ENDBRANCH   3  24
ENDBRANCH   1   3
BRANCH   1  26
HETATM   26  C21 UNL     1      -5.848   2.665  11.687  1.00  0.00     0.260 C 
BRANCH  26  27
HETATM   27  O5  UNL     1      -4.634   3.399  11.554  1.00  0.00    -0.314 OA
BRANCH  27  28
HETATM   28  C22 UNL     1      -3.504   2.659  11.434  1.00  0.00     0.259 C 
HETATM   29  O6  UNL     1      -3.408   1.496  11.818  1.00  0.00    -0.265 OA
BRANCH  28  30
HETATM   30  C23 UNL     1      -2.352   3.416  10.815  1.00  0.00     0.120 C 
BRANCH  30  31
HETATM   31  C24 UNL     1      -1.886   4.635  11.600  1.00  0.00     0.112 C 
BRANCH  31  32
HETATM   32  C25 UNL     1      -0.399   4.884  11.439  1.00  0.00     0.218 C 
HETATM   33  O7  UNL     1       0.382   4.052  10.991  1.00  0.00    -0.274 OA
HETATM   34  N1  UNL     1      -0.017   6.143  11.847  1.00  0.00    -0.346 N 
HETATM   35  H32 UNL     1      -0.632   6.611  12.505  1.00  0.00     0.163 HD
BRANCH  34  36
HETATM   36  C26 UNL     1       1.406   6.502  11.938  1.00  0.00     0.186 C 
BRANCH  36  37
HETATM   37  C27 UNL     1       1.703   7.701  11.030  1.00  0.00     0.074 C 
BRANCH  37  38
HETATM   38  C28 UNL     1       1.823   7.349   9.568  1.00  0.00    -0.056 A 
HETATM   39  C29 UNL     1       1.124   8.082   8.599  1.00  0.00     0.007 A 
HETATM   40  C30 UNL     1       1.241   7.759   7.247  1.00  0.00     0.001 A 
HETATM   41  C31 UNL     1       2.057   6.700   6.850  1.00  0.00     0.000 A 
HETATM   42  C32 UNL     1       2.756   5.965   7.805  1.00  0.00     0.001 A 
HETATM   43  C33 UNL     1       2.641   6.287   9.158  1.00  0.00     0.007 A 
ENDBRANCH  37  38
ENDBRANCH  36  37
BRANCH  36  44
HETATM   44  C34 UNL     1       1.680   6.868  13.394  1.00  0.00     0.163 C 
HETATM   45  O8  UNL     1       2.120   7.941  13.788  1.00  0.00    -0.648 OA
BRANCH  44  46
HETATM   46  O9  UNL     1       1.399   5.881  14.264  1.00  0.00    -0.775 OA
HETATM   47  H41 UNL     1       1.612   6.248  15.146  1.00  0.00     0.167 HD
ENDBRANCH  44  46
ENDBRANCH  36  44
ENDBRANCH  34  36
ENDBRANCH  31  32
ENDBRANCH  30  31
ENDBRANCH  28  30
ENDBRANCH  27  28
ENDBRANCH  26  27
ENDBRANCH   1  26
TORSDOF 13
ENDMDL
