MODEL 1
REMARK minimizedAffinity -8.27597809
REMARK CNNscore 0.597881734
REMARK CNNaffinity 7.59521103
REMARK  8 active torsions:
REMARK  status: ('A' for Active; 'I' for Inactive)
REMARK    1  A    between atoms: C2_2  and  N1_3 
REMARK    2  A    between atoms: C2_2  and  C24_33 
REMARK       I    between atoms: N1_3  and  C3_4 
REMARK    3  A    between atoms: C3_4  and  C4_6 
REMARK    4  A    between atoms: C4_6  and  C5_7 
REMARK    5  A    between atoms: C10_12  and  C12_14 
REMARK    6  A    between atoms: C12_14  and  O2_15 
REMARK    7  A    between atoms: C13_16  and  O3_17 
REMARK    8  A    between atoms: C18_23  and  C19_24 
ROOT
HETATM    1  C5  UNL     1      -1.229  50.121 -17.546  1.00  0.00     0.054 C 
HETATM    2  C6  UNL     1      -0.295  51.145 -18.153  1.00  0.00     0.028 A 
HETATM    3  C7  UNL     1       0.661  51.835 -17.432  1.00  0.00     0.008 A 
HETATM    4  C8  UNL     1       0.900  51.703 -15.957  1.00  0.00     0.054 C 
HETATM    5  C9  UNL     1      -0.378  51.083 -15.329  1.00  0.00     0.012 C 
HETATM    6  C10 UNL     1      -0.496  51.056 -13.764  1.00  0.00     0.008 C 
HETATM    7  C11 UNL     1      -0.173  52.463 -13.190  1.00  0.00     0.020 C 
HETATM    8  C13 UNL     1      -1.995  50.754 -13.406  1.00  0.00     0.128 C 
HETATM    9  C14 UNL     1      -2.785  49.995 -14.485  1.00  0.00     0.033 C 
HETATM   10  C15 UNL     1      -1.921  49.023 -15.280  1.00  0.00     0.013 C 
HETATM   11  C16 UNL     1      -0.770  49.721 -16.064  1.00  0.00    -0.030 C 
HETATM   12  C17 UNL     1       0.402  48.712 -16.130  1.00  0.00     0.016 C 
HETATM   13  S1  UNL     1       1.522  52.885 -18.450  1.00  0.00    -0.074 SA
HETATM   14  C18 UNL     1       0.521  52.410 -19.782  1.00  0.00     0.086 A 
HETATM   15  N3  UNL     1      -0.404  51.514 -19.479  1.00  0.00    -0.352 N 
ATOM     16  H3  UNL     1      -1.098  51.147 -20.131  1.00  0.00     0.166 HD
ENDROOT
BRANCH   1  17
HETATM   17  C4  UNL     1      -1.578  48.982 -18.525  1.00  0.00     0.114 C 
BRANCH  17  18
HETATM   18  C3  UNL     1      -3.013  48.871 -19.021  1.00  0.00     0.218 C 
HETATM   19  N1  UNL     1      -3.081  48.360 -20.302  1.00  0.00    -0.353 N 
HETATM   20  H5  UNL     1      -2.245  47.997 -20.740  1.00  0.00     0.163 HD
HETATM   21  O1  UNL     1      -4.011  49.210 -18.396  1.00  0.00    -0.274 OA
BRANCH  19  22
HETATM   22  C2  UNL     1      -4.346  48.167 -20.990  1.00  0.00     0.113 C 
HETATM   23  C1  UNL     1      -4.990  46.836 -20.600  1.00  0.00     0.037 C 
BRANCH  22  24
HETATM   24  C24 UNL     1      -4.126  48.332 -22.485  1.00  0.00    -0.036 A 
HETATM   25  C25 UNL     1      -5.200  48.100 -23.363  1.00  0.00     0.009 A 
HETATM   26  C26 UNL     1      -5.047  48.267 -24.741  1.00  0.00     0.001 A 
HETATM   27  C27 UNL     1      -3.822  48.681 -25.261  1.00  0.00     0.000 A 
HETATM   28  C28 UNL     1      -2.752  48.928 -24.405  1.00  0.00     0.001 A 
HETATM   29  C29 UNL     1      -2.902  48.761 -23.024  1.00  0.00     0.009 A 
ENDBRANCH  22  24
ENDBRANCH  19  22
ENDBRANCH  17  18
ENDBRANCH   1  17
BRANCH  14  30
HETATM   30  C19 UNL     1       0.686  52.981 -21.127  1.00  0.00     0.013 A 
HETATM   31  C20 UNL     1       0.171  52.419 -22.303  1.00  0.00     0.017 A 
HETATM   32  C21 UNL     1       0.395  53.035 -23.536  1.00  0.00     0.018 A 
HETATM   33  C22 UNL     1       1.132  54.206 -23.564  1.00  0.00     0.087 A 
HETATM   34  N2  UNL     1       1.649  54.788 -22.464  1.00  0.00    -0.374 N 
HETATM   35  C23 UNL     1       1.411  54.164 -21.280  1.00  0.00     0.101 A 
ATOM     36  H2  UNL     1       2.191  55.650 -22.516  1.00  0.00     0.164 HD
ENDBRANCH  14  30
BRANCH   6  37
HETATM   37  C12 UNL     1       0.458  50.067 -13.054  1.00  0.00     0.176 C 
BRANCH  37  38
HETATM   38  O2  UNL     1      -0.185  48.827 -12.797  1.00  0.00    -0.400 OA
HETATM   39  H17 UNL     1       0.453  48.270 -12.318  1.00  0.00     0.209 HD
ENDBRANCH  37  38
ENDBRANCH   6  37
BRANCH   8  40
HETATM   40  O3  UNL     1      -2.102  50.030 -12.181  1.00  0.00    -0.395 OA
HETATM   41  H19 UNL     1      -1.942  50.658 -11.454  1.00  0.00     0.210 HD
ENDBRANCH   8  40
TORSDOF 8
ENDMDL
