MODEL 1
REMARK minimizedAffinity -8.71272945
REMARK  6 active torsions:
REMARK  status: ('A' for Active; 'I' for Inactive)
REMARK    1  A    between atoms: C2_2  and  C3_3 
REMARK    2  A    between atoms: C2_2  and  C9_10 
REMARK    3  A    between atoms: C3_3  and  C4_4 
REMARK    4  A    between atoms: C4_4  and  C5_5 
REMARK    5  A    between atoms: C17_18  and  C18_19 
REMARK    6  A    between atoms: C18_19  and  O2_22 
ROOT
HETATM    1  C9  UNL     1      -1.074  51.633 -22.592  1.00  0.00    -0.002 C 
HETATM    2  C10 UNL     1      -2.386  52.211 -23.213  1.00  0.00     0.006 C 
HETATM    3  C11 UNL     1      -3.540  51.266 -22.802  1.00  0.00     0.011 C 
HETATM    4  C12 UNL     1      -2.833  49.996 -22.296  1.00  0.00    -0.032 C 
HETATM    5  C13 UNL     1      -2.428  49.201 -23.585  1.00  0.00     0.016 C 
HETATM    6  C14 UNL     1      -3.655  49.102 -21.319  1.00  0.00     0.003 C 
HETATM    7  C15 UNL     1      -5.001  48.590 -21.859  1.00  0.00     0.009 C 
HETATM    8  C16 UNL     1      -5.540  47.373 -21.101  1.00  0.00     0.042 C 
HETATM    9  C17 UNL     1      -5.199  47.252 -19.580  1.00  0.00     0.095 C 
HETATM   10  O3  UNL     1      -5.510  45.865 -19.316  1.00  0.00    -0.377 OA
HETATM   11  C21 UNL     1      -5.154  45.303 -18.063  1.00  0.00     0.169 C 
HETATM   12  C22 UNL     1      -3.831  45.784 -17.498  1.00  0.00     0.027 C 
HETATM   13  C23 UNL     1      -2.947  46.370 -18.577  1.00  0.00     0.010 C 
HETATM   14  C24 UNL     1      -3.651  47.508 -19.355  1.00  0.00     0.032 C 
HETATM   15  C25 UNL     1      -2.819  47.957 -20.644  1.00  0.00    -0.033 C 
HETATM   16  C26 UNL     1      -2.574  46.761 -21.612  1.00  0.00     0.016 C 
HETATM   17  C27 UNL     1      -1.413  48.480 -20.164  1.00  0.00     0.011 C 
HETATM   18  C28 UNL     1      -0.684  49.479 -21.087  1.00  0.00     0.011 C 
HETATM   19  C29 UNL     1      -1.607  50.632 -21.520  1.00  0.00    -0.032 C 
HETATM   20  C30 UNL     1      -1.998  51.427 -20.237  1.00  0.00     0.016 C 
ENDROOT
BRANCH   1  21
HETATM   21  C2  UNL     1       0.017  52.711 -22.298  1.00  0.00    -0.014 C 
HETATM   22  C1  UNL     1       1.027  52.377 -21.194  1.00  0.00     0.010 C 
BRANCH  21  23
HETATM   23  C3  UNL     1       0.726  53.154 -23.600  1.00  0.00     0.007 C 
BRANCH  23  24
HETATM   24  C4  UNL     1      -0.204  53.472 -24.778  1.00  0.00     0.035 C 
BRANCH  24  25
HETATM   25  C5  UNL     1       0.425  53.264 -26.120  1.00  0.00     0.156 A 
HETATM   26  O1  UNL     1       1.579  52.403 -26.083  1.00  0.00    -0.370 OA
HETATM   27  C6  UNL     1       0.469  51.926 -26.851  1.00  0.00     0.080 A 
HETATM   28  C7  UNL     1      -0.172  50.697 -26.286  1.00  0.00     0.048 C 
HETATM   29  C8  UNL     1       0.707  51.933 -28.329  1.00  0.00     0.048 C 
ENDBRANCH  24  25
ENDBRANCH  23  24
ENDBRANCH  21  23
ENDBRANCH   1  21
BRANCH   9  30
HETATM   30  C18 UNL     1      -6.170  48.228 -18.737  1.00  0.00     0.082 C 
HETATM   31  C19 UNL     1      -6.699  49.405 -19.587  1.00  0.00     0.049 C 
HETATM   32  C20 UNL     1      -7.404  47.575 -18.092  1.00  0.00     0.049 C 
BRANCH  30  33
HETATM   33  O2  UNL     1      -5.463  48.785 -17.614  1.00  0.00    -0.388 OA
HETATM   34  H35 UNL     1      -5.026  49.604 -17.905  1.00  0.00     0.210 HD
ENDBRANCH  30  33
ENDBRANCH   9  30
TORSDOF 6
ENDMDL
