MODEL 1
REMARK minimizedAffinity -7.49139118
REMARK CNNscore 0.53486979
REMARK CNNaffinity 6.4471755
REMARK  9 active torsions:
REMARK  status: ('A' for Active; 'I' for Inactive)
REMARK    1  A    between atoms: C2_2  and  C3_3 
REMARK    2  A    between atoms: C2_2  and  C9_12 
REMARK    3  A    between atoms: C3_3  and  C4_4 
REMARK    4  A    between atoms: C4_4  and  O1_5 
REMARK    5  A    between atoms: C4_4  and  C5_6 
REMARK    6  A    between atoms: C5_6  and  O2_7 
REMARK    7  A    between atoms: C5_6  and  C6_8 
REMARK    8  A    between atoms: C6_8  and  O3_11 
REMARK    9  A    between atoms: C16_19  and  O4_20 
ROOT
HETATM    1  C9  UNL     1       2.193  54.172 -10.075  1.00  0.00     0.097 A 
HETATM    2  C10 UNL     1       2.187  55.555 -10.687  1.00  0.00     0.042 C 
HETATM    3  C11 UNL     1       3.379  56.271 -10.025  1.00  0.00     0.016 C 
HETATM    4  C12 UNL     1       3.466  55.707  -8.568  1.00  0.00    -0.002 C 
HETATM    5  C13 UNL     1       2.424  56.508  -7.728  1.00  0.00     0.019 C 
HETATM    6  C14 UNL     1       2.976  54.256  -8.755  1.00  0.00     0.104 A 
HETATM    7  C15 UNL     1       3.713  53.088  -8.175  1.00  0.00     0.074 C 
HETATM    8  C16 UNL     1       4.621  53.367  -6.958  1.00  0.00     0.126 C 
HETATM    9  C17 UNL     1       4.869  54.860  -6.617  1.00  0.00     0.032 C 
HETATM   10  C18 UNL     1       5.991  55.187  -5.516  1.00  0.00    -0.032 C 
HETATM   11  C19 UNL     1       5.713  54.330  -4.248  1.00  0.00     0.016 C 
HETATM   12  C20 UNL     1       7.409  54.865  -6.021  1.00  0.00     0.017 C 
HETATM   13  C21 UNL     1       8.489  55.129  -4.998  1.00  0.00     0.080 C 
HETATM   14  C22 UNL     1       8.542  56.598  -4.707  1.00  0.00     0.135 C 
HETATM   15  O5  UNL     1       9.643  57.136  -4.540  1.00  0.00    -0.297 OA
HETATM   16  C23 UNL     1       7.230  57.371  -4.473  1.00  0.00     0.017 C 
HETATM   17  C24 UNL     1       7.485  58.812  -4.975  1.00  0.00     0.023 C 
HETATM   18  C25 UNL     1       7.088  57.466  -2.933  1.00  0.00     0.023 C 
HETATM   19  C26 UNL     1       5.908  56.714  -5.082  1.00  0.00     0.009 C 
HETATM   20  C27 UNL     1       5.144  57.564  -6.132  1.00  0.00     0.007 C 
HETATM   21  C28 UNL     1       5.415  57.165  -7.576  1.00  0.00     0.011 C 
HETATM   22  C29 UNL     1       4.935  55.730  -7.928  1.00  0.00    -0.027 C 
HETATM   23  C30 UNL     1       5.953  55.175  -8.970  1.00  0.00     0.016 C 
HETATM   24  O6  UNL     1       1.555  54.129  -8.782  1.00  0.00    -0.362 OA
ENDROOT
BRANCH   1  25
HETATM   25  C2  UNL     1       1.743  52.998 -10.930  1.00  0.00     0.022 C 
HETATM   26  C1  UNL     1       2.865  52.154 -11.548  1.00  0.00     0.013 C 
BRANCH  25  27
HETATM   27  C3  UNL     1       0.667  53.326 -11.993  1.00  0.00     0.041 C 
BRANCH  27  28
HETATM   28  C4  UNL     1      -0.667  52.583 -11.836  1.00  0.00     0.150 C 
BRANCH  28  29
HETATM   29  O1  UNL     1      -1.297  52.523 -13.124  1.00  0.00    -0.393 OA
HETATM   30  H8  UNL     1      -1.557  53.450 -13.310  1.00  0.00     0.210 HD
ENDBRANCH  28  29
BRANCH  28  31
HETATM   31  C5  UNL     1      -1.643  53.326 -10.888  1.00  0.00     0.180 C 
BRANCH  31  32
HETATM   32  O2  UNL     1      -1.356  54.731 -11.057  1.00  0.00    -0.390 OA
HETATM   33  H10 UNL     1      -1.836  55.218 -10.363  1.00  0.00     0.210 HD
ENDBRANCH  31  32
BRANCH  31  34
HETATM   34  C6  UNL     1      -3.149  53.019 -11.196  1.00  0.00     0.079 C 
HETATM   35  C7  UNL     1      -3.461  51.536 -10.959  1.00  0.00     0.048 C 
HETATM   36  C8  UNL     1      -4.087  53.869 -10.332  1.00  0.00     0.048 C 
BRANCH  34  37
HETATM   37  O3  UNL     1      -3.489  53.299 -12.556  1.00  0.00    -0.388 OA
HETATM   38  H17 UNL     1      -2.746  53.799 -12.958  1.00  0.00     0.210 HD
ENDBRANCH  34  37
ENDBRANCH  31  34
ENDBRANCH  28  31
ENDBRANCH  27  28
ENDBRANCH  25  27
ENDBRANCH   1  25
BRANCH   8  39
HETATM   39  O4  UNL     1       4.020  52.728  -5.823  1.00  0.00    -0.395 OA
HETATM   40  H28 UNL     1       3.950  51.777  -6.019  1.00  0.00     0.210 HD
ENDBRANCH   8  39
TORSDOF 9
ENDMDL
