MODEL 1
REMARK minimizedAffinity -8.86163425
REMARK CNNscore 0.413501889
REMARK CNNaffinity 7.07400179
REMARK  4 active torsions:
REMARK  status: ('A' for Active; 'I' for Inactive)
REMARK    1  A    between atoms: C4_4  and  C5_5 
REMARK    2  A    between atoms: C5_5  and  C6_7 
REMARK    3  A    between atoms: C6_7  and  C7_8 
REMARK    4  A    between atoms: C7_8  and  C9_10 
ROOT
HETATM    1  C9  UNL     1      -6.709   7.351  14.518  1.00  0.00    -0.001 C 
HETATM    2  C10 UNL     1      -6.381   8.704  15.218  1.00  0.00     0.007 C 
HETATM    3  C11 UNL     1      -4.864   8.952  15.059  1.00  0.00     0.015 C 
HETATM    4  C12 UNL     1      -4.411   7.915  14.017  1.00  0.00    -0.013 C 
HETATM    5  C13 UNL     1      -4.756   8.536  12.614  1.00  0.00     0.021 C 
HETATM    6  C14 UNL     1      -2.926   7.551  13.937  1.00  0.00    -0.070 C 
HETATM    7  C15 UNL     1      -1.981   8.507  13.999  1.00  0.00    -0.022 C 
HETATM    8  C16 UNL     1      -0.566   8.303  13.557  1.00  0.00     0.034 C 
HETATM    9  C17 UNL     1      -0.477   7.152  12.529  1.00  0.00     0.013 C 
HETATM   10  C18 UNL     1       0.920   7.054  11.815  1.00  0.00     0.018 C 
HETATM   11  C19 UNL     1       1.096   8.285  10.886  1.00  0.00     0.023 C 
HETATM   12  C20 UNL     1       2.143   7.020  12.746  1.00  0.00     0.023 C 
HETATM   13  C21 UNL     1       0.957   5.792  10.940  1.00  0.00     0.135 C 
HETATM   14  O2  UNL     1       1.460   5.782   9.815  1.00  0.00    -0.297 OA
HETATM   15  C22 UNL     1       0.439   4.509  11.543  1.00  0.00     0.080 C 
HETATM   16  C23 UNL     1      -0.969   4.710  12.080  1.00  0.00     0.017 C 
HETATM   17  C24 UNL     1      -1.076   5.835  13.139  1.00  0.00    -0.031 C 
HETATM   18  C25 UNL     1      -0.320   5.373  14.418  1.00  0.00     0.016 C 
HETATM   19  C26 UNL     1      -2.590   6.089  13.599  1.00  0.00     0.024 C 
HETATM   20  C27 UNL     1      -3.706   5.459  12.734  1.00  0.00     0.010 C 
HETATM   21  C28 UNL     1      -5.141   5.596  13.319  1.00  0.00     0.011 C 
HETATM   22  C29 UNL     1      -5.298   6.681  14.412  1.00  0.00    -0.029 C 
HETATM   23  C30 UNL     1      -4.960   6.075  15.811  1.00  0.00     0.016 C 
ENDROOT
BRANCH   1  24
HETATM   24  C7  UNL     1      -7.881   6.596  15.209  1.00  0.00    -0.007 C 
HETATM   25  C8  UNL     1      -7.474   5.212  15.723  1.00  0.00     0.011 C 
BRANCH  24  26
HETATM   26  C6  UNL     1      -9.134   6.472  14.309  1.00  0.00     0.087 C 
BRANCH  26  27
HETATM   27  C5  UNL     1     -10.292   7.370  14.718  1.00  0.00     0.149 C 
HETATM   28  O1  UNL     1     -10.124   8.375  15.404  1.00  0.00    -0.293 OA
BRANCH  27  29
HETATM   29  C4  UNL     1     -11.656   6.963  14.261  1.00  0.00     0.052 C 
HETATM   30  C2  UNL     1     -12.367   7.585  13.304  1.00  0.00    -0.084 C 
HETATM   31  C1  UNL     1     -11.883   8.756  12.493  1.00  0.00     0.043 C 
HETATM   32  C3  UNL     1     -13.761   7.124  12.969  1.00  0.00     0.043 C 
ENDBRANCH  27  29
ENDBRANCH  26  27
ENDBRANCH  24  26
ENDBRANCH   1  24
TORSDOF 4
ENDMDL
