MODEL 1
REMARK minimizedAffinity -9.54808426
REMARK  11 active torsions:
REMARK  status: ('A' for Active; 'I' for Inactive)
REMARK    1  A    between atoms: C6_6  and  C8_8 
REMARK    2  A    between atoms: C8_8  and  O1_9 
REMARK    3  A    between atoms: O1_9  and  C9_10 
REMARK    4  A    between atoms: C10_12  and  C11_13 
REMARK    5  A    between atoms: C11_13  and  O3_14 
REMARK    6  A    between atoms: C12_15  and  O4_16 
REMARK    7  A    between atoms: C13_17  and  O5_18 
REMARK    8  A    between atoms: C14_19  and  O6_20 
REMARK    9  A    between atoms: C20_26  and  C21_27 
REMARK   10  A    between atoms: C21_27  and  C22_28 
REMARK   11  A    between atoms: C26_34  and  O9_35 
ROOT
HETATM    1  C1  UNL     1       1.712  52.511 -21.018  1.00  0.00     0.015 C 
HETATM    2  C2  UNL     1       0.369  52.547 -21.021  1.00  0.00    -0.084 C 
HETATM    3  C3  UNL     1      -0.396  52.726 -22.309  1.00  0.00     0.034 C 
HETATM    4  C4  UNL     1      -1.700  51.914 -22.321  1.00  0.00     0.010 C 
HETATM    5  C5  UNL     1      -1.578  50.618 -21.483  1.00  0.00     0.005 C 
HETATM    6  C6  UNL     1      -2.696  49.518 -21.774  1.00  0.00    -0.018 C 
HETATM    7  C7  UNL     1      -2.001  48.203 -22.214  1.00  0.00     0.018 C 
HETATM    8  C15 UNL     1      -3.532  49.193 -20.513  1.00  0.00     0.012 C 
HETATM    9  C16 UNL     1      -3.903  50.456 -19.768  1.00  0.00     0.002 C 
HETATM   10  C17 UNL     1      -2.682  51.133 -19.164  1.00  0.00     0.010 C 
HETATM   11  C18 UNL     1      -1.339  50.993 -19.946  1.00  0.00    -0.032 C 
HETATM   12  C19 UNL     1      -0.497  49.853 -19.310  1.00  0.00     0.016 C 
HETATM   13  C20 UNL     1      -0.538  52.374 -19.808  1.00  0.00     0.025 C 
ENDROOT
BRANCH   6  14
HETATM   14  C8  UNL     1      -3.670  49.924 -22.926  1.00  0.00     0.180 C 
BRANCH  14  15
HETATM   15  O1  UNL     1      -3.161  49.492 -24.191  1.00  0.00    -0.358 OA
BRANCH  15  16
HETATM   16  C9  UNL     1      -2.936  50.574 -25.103  1.00  0.00     0.291 C 
HETATM   17  O2  UNL     1      -1.544  50.857 -25.192  1.00  0.00    -0.348 OA
HETATM   18  C10 UNL     1      -1.158  51.747 -26.264  1.00  0.00     0.179 C 
HETATM   19  C12 UNL     1      -2.327  52.281 -27.107  1.00  0.00     0.180 C 
HETATM   20  C13 UNL     1      -3.305  51.179 -27.538  1.00  0.00     0.183 C 
HETATM   21  C14 UNL     1      -3.489  50.105 -26.462  1.00  0.00     0.204 C 
BRANCH  18  22
HETATM   22  C11 UNL     1      -0.073  51.034 -27.082  1.00  0.00     0.198 C 
BRANCH  22  23
HETATM   23  O3  UNL     1       0.045  51.675 -28.359  1.00  0.00    -0.398 OA
HETATM   24  H17 UNL     1       0.146  52.622 -28.149  1.00  0.00     0.209 HD
ENDBRANCH  22  23
ENDBRANCH  18  22
BRANCH  19  25
HETATM   25  O4  UNL     1      -1.887  53.021 -28.246  1.00  0.00    -0.390 OA
HETATM   26  H19 UNL     1      -1.983  52.410 -29.009  1.00  0.00     0.210 HD
ENDBRANCH  19  25
BRANCH  20  27
HETATM   27  O5  UNL     1      -2.858  50.604 -28.780  1.00  0.00    -0.390 OA
HETATM   28  H21 UNL     1      -2.615  49.677 -28.560  1.00  0.00     0.210 HD
ENDBRANCH  20  27
BRANCH  21  29
HETATM   29  O6  UNL     1      -2.797  48.906 -26.890  1.00  0.00    -0.388 OA
HETATM   30  H23 UNL     1      -2.692  48.372 -26.073  1.00  0.00     0.210 HD
ENDBRANCH  21  29
ENDBRANCH  15  16
ENDBRANCH  14  15
ENDBRANCH   6  14
BRANCH  13  31
HETATM   31  C21 UNL     1       0.184  52.656 -18.456  1.00  0.00     0.037 C 
BRANCH  31  32
HETATM   32  C22 UNL     1       0.348  51.459 -17.559  1.00  0.00    -0.010 C 
HETATM   33  C23 UNL     1       1.005  51.413 -16.388  1.00  0.00     0.044 C 
HETATM   34  C24 UNL     1       1.036  50.163 -15.589  1.00  0.00     0.291 C 
HETATM   35  C26 UNL     1       1.768  52.433 -15.625  1.00  0.00     0.181 C 
HETATM   36  O7  UNL     1       0.375  49.162 -15.792  1.00  0.00    -0.260 OA
HETATM   37  O8  UNL     1       1.897  50.338 -14.548  1.00  0.00    -0.315 OA
HETATM   38  C25 UNL     1       2.619  51.552 -14.736  1.00  0.00     0.215 C 
BRANCH  35  39
HETATM   39  O9  UNL     1       2.573  53.258 -16.447  1.00  0.00    -0.389 OA
HETATM   40  H40 UNL     1       2.928  53.975 -15.892  1.00  0.00     0.210 HD
ENDBRANCH  35  39
ENDBRANCH  31  32
ENDBRANCH  13  31
TORSDOF 11
ENDMDL
