MODEL 1
REMARK minimizedAffinity -9.65834141
REMARK  6 active torsions:
REMARK  status: ('A' for Active; 'I' for Inactive)
REMARK    1  A    between atoms: C2_2  and  C30_31 
REMARK    2  A    between atoms: C3_3  and  C4_4 
REMARK    3  A    between atoms: C4_4  and  C5_5 
REMARK    4  A    between atoms: C5_5  and  C6_6 
REMARK    5  A    between atoms: C6_6  and  C8_8 
REMARK    6  A    between atoms: C30_31  and  O3_33 
ROOT
HETATM    1  C8  UNL     1      -3.265   7.590  14.511  1.00  0.00    -0.002 C 
HETATM    2  C9  UNL     1      -3.953   8.646  13.610  1.00  0.00     0.007 C 
HETATM    3  C10 UNL     1      -2.945   8.999  12.495  1.00  0.00     0.015 C 
HETATM    4  C11 UNL     1      -1.599   8.394  12.959  1.00  0.00    -0.013 C 
HETATM    5  C12 UNL     1      -0.961   9.449  13.913  1.00  0.00     0.021 C 
HETATM    6  C13 UNL     1      -0.547   8.062  11.918  1.00  0.00    -0.070 C 
HETATM    7  C14 UNL     1      -0.550   8.540  10.666  1.00  0.00    -0.022 C 
HETATM    8  C15 UNL     1       0.498   8.123   9.688  1.00  0.00     0.034 C 
HETATM    9  C16 UNL     1       1.911   8.150  10.323  1.00  0.00     0.013 C 
HETATM   10  C17 UNL     1       3.031   7.730   9.297  1.00  0.00     0.018 C 
HETATM   11  C18 UNL     1       4.419   8.251   9.717  1.00  0.00     0.023 C 
HETATM   12  C19 UNL     1       2.766   8.308   7.887  1.00  0.00     0.023 C 
HETATM   13  C20 UNL     1       3.110   6.204   9.179  1.00  0.00     0.135 C 
HETATM   14  O1  UNL     1       3.552   5.649   8.170  1.00  0.00    -0.297 OA
HETATM   15  C21 UNL     1       2.620   5.371  10.338  1.00  0.00     0.080 C 
HETATM   16  C22 UNL     1       2.814   6.107  11.653  1.00  0.00     0.017 C 
HETATM   17  C23 UNL     1       1.961   7.405  11.738  1.00  0.00    -0.031 C 
HETATM   18  C24 UNL     1       2.656   8.361  12.744  1.00  0.00     0.016 C 
HETATM   19  C25 UNL     1       0.507   7.019  12.279  1.00  0.00     0.024 C 
HETATM   20  C26 UNL     1       0.458   6.563  13.770  1.00  0.00     0.010 C 
HETATM   21  C27 UNL     1      -0.934   6.426  14.430  1.00  0.00     0.011 C 
HETATM   22  C28 UNL     1      -2.085   7.066  13.635  1.00  0.00    -0.029 C 
HETATM   23  C29 UNL     1      -2.596   6.004  12.618  1.00  0.00     0.016 C 
ENDROOT
BRANCH   1  24
HETATM   24  C6  UNL     1      -4.196   6.556  15.214  1.00  0.00    -0.014 C 
HETATM   25  C7  UNL     1      -5.555   7.234  15.476  1.00  0.00     0.010 C 
BRANCH  24  26
HETATM   26  C5  UNL     1      -4.409   5.231  14.438  1.00  0.00     0.008 C 
BRANCH  26  27
HETATM   27  C4  UNL     1      -5.407   5.309  13.271  1.00  0.00     0.028 C 
BRANCH  27  28
HETATM   28  C3  UNL     1      -5.523   4.060  12.443  1.00  0.00    -0.013 C 
HETATM   29  C2  UNL     1      -6.461   3.093  12.511  1.00  0.00     0.008 C 
HETATM   30  C1  UNL     1      -6.401   1.895  11.602  1.00  0.00     0.055 C 
BRANCH  29  31
HETATM   31  C30 UNL     1      -7.579   3.140  13.491  1.00  0.00     0.171 C 
HETATM   32  O2  UNL     1      -7.504   3.217  14.704  1.00  0.00    -0.646 OA
BRANCH  31  33
HETATM   33  O3  UNL     1      -8.781   3.085  12.888  1.00  0.00    -0.773 OA
HETATM   34  H46 UNL     1      -9.409   3.116  13.638  1.00  0.00     0.167 HD
ENDBRANCH  31  33
ENDBRANCH  29  31
ENDBRANCH  27  28
ENDBRANCH  26  27
ENDBRANCH  24  26
ENDBRANCH   1  24
TORSDOF 6
ENDMDL
