MODEL 1
REMARK minimizedAffinity -7.79818392
REMARK CNNscore 0.795652926
REMARK CNNaffinity 7.25163221
REMARK  3 active torsions:
REMARK  status: ('A' for Active; 'I' for Inactive)
REMARK    1  A    between atoms: C4_4  and  C5_5 
REMARK    2  A    between atoms: C5_5  and  C7_7 
REMARK    3  A    between atoms: C7_7  and  O1_10 
ROOT
HETATM    1  C1  UNL     1       3.040  58.025  -6.402  1.00  0.00     0.010 C 
HETATM    2  C2  UNL     1       3.765  56.743  -6.802  1.00  0.00    -0.009 C 
HETATM    3  C3  UNL     1       5.274  56.982  -6.938  1.00  0.00     0.037 C 
HETATM    4  C4  UNL     1       6.025  55.652  -7.114  1.00  0.00     0.129 C 
HETATM    5  O2  UNL     1       5.203  54.709  -7.833  1.00  0.00    -0.380 OA
HETATM    6  C10 UNL     1       4.335  55.265  -8.808  1.00  0.00     0.128 C 
HETATM    7  C11 UNL     1       3.557  54.122  -9.488  1.00  0.00     0.042 C 
HETATM    8  C12 UNL     1       2.110  54.641  -9.606  1.00  0.00    -0.030 C 
HETATM    9  C13 UNL     1       2.065  55.572 -10.859  1.00  0.00     0.016 C 
HETATM   10  C14 UNL     1       1.035  53.529  -9.714  1.00  0.00     0.004 C 
HETATM   11  C15 UNL     1       1.062  52.772 -11.049  1.00  0.00     0.007 C 
HETATM   12  C16 UNL     1       0.031  51.651 -11.047  1.00  0.00     0.007 C 
HETATM   13  C17 UNL     1      -1.380  52.240 -11.063  1.00  0.00     0.010 C 
HETATM   14  C18 UNL     1      -2.524  51.175 -11.020  1.00  0.00     0.018 C 
HETATM   15  C19 UNL     1      -2.308  50.069  -9.978  1.00  0.00     0.023 C 
HETATM   16  C20 UNL     1      -2.693  50.534 -12.412  1.00  0.00     0.023 C 
HETATM   17  C21 UNL     1      -3.852  51.876 -10.695  1.00  0.00     0.135 C 
HETATM   18  O3  UNL     1      -4.828  51.239 -10.276  1.00  0.00    -0.297 OA
HETATM   19  C22 UNL     1      -3.955  53.348 -10.998  1.00  0.00     0.080 C 
HETATM   20  C23 UNL     1      -2.859  54.150 -10.304  1.00  0.00     0.018 C 
HETATM   21  C24 UNL     1      -1.602  53.336 -10.017  1.00  0.00    -0.026 A 
HETATM   22  C25 UNL     1      -1.255  53.079  -8.573  1.00  0.00     0.021 A 
HETATM   23  C26 UNL     1      -0.382  54.043  -9.362  1.00  0.00    -0.027 A 
HETATM   24  C27 UNL     1      -0.522  55.530  -9.005  1.00  0.00     0.011 C 
HETATM   25  C28 UNL     1       0.658  56.212  -8.286  1.00  0.00     0.011 C 
HETATM   26  C29 UNL     1       1.947  55.382  -8.233  1.00  0.00    -0.030 C 
HETATM   27  C30 UNL     1       1.847  54.435  -6.999  1.00  0.00     0.016 C 
HETATM   28  C31 UNL     1       3.272  56.197  -8.160  1.00  0.00     0.027 C 
ENDROOT
BRANCH   4  29
HETATM   29  C5  UNL     1       6.475  54.903  -5.810  1.00  0.00     0.044 C 
HETATM   30  C6  UNL     1       6.552  53.394  -6.154  1.00  0.00     0.015 C 
BRANCH  29  31
HETATM   31  C7  UNL     1       7.793  55.406  -5.114  1.00  0.00     0.056 C 
HETATM   32  C8  UNL     1       7.509  56.392  -3.964  1.00  0.00     0.045 C 
HETATM   33  C9  UNL     1       8.630  54.263  -4.497  1.00  0.00     0.045 C 
BRANCH  31  34
HETATM   34  O1  UNL     1       8.653  56.020  -6.075  1.00  0.00    -0.390 OA
HETATM   35  H18 UNL     1       8.396  56.952  -6.191  1.00  0.00     0.210 HD
ENDBRANCH  31  34
ENDBRANCH  29  31
ENDBRANCH   4  29
TORSDOF 3
ENDMDL
