MODEL 1
REMARK minimizedAffinity -8.05811977
REMARK CNNscore 0.827870369
REMARK CNNaffinity 7.11321974
REMARK  10 active torsions:
REMARK  status: ('A' for Active; 'I' for Inactive)
REMARK    1  A    between atoms: N1_6  and  O1_8 
REMARK    2  A    between atoms: O1_8  and  C6_9 
REMARK    3  A    between atoms: C6_9  and  C7_10 
REMARK       I    between atoms: C7_10  and  N2_12 
REMARK    4  A    between atoms: N2_12  and  C8_13 
REMARK    5  A    between atoms: C8_13  and  C9_14 
REMARK    6  A    between atoms: C20_27  and  O3_28 
REMARK    7  A    between atoms: C27_35  and  O4_36 
REMARK    8  A    between atoms: C27_35  and  C28_37 
REMARK    9  A    between atoms: C28_37  and  C29_39 
REMARK   10  A    between atoms: C29_39  and  O6_40 
ROOT
HETATM    1  C1  UNL     1      -2.312   5.820  12.262  1.00  0.00     0.020 C 
HETATM    2  C2  UNL     1      -0.930   6.521  12.381  1.00  0.00    -0.014 C 
HETATM    3  C3  UNL     1      -0.165   5.902  13.582  1.00  0.00     0.020 C 
HETATM    4  C4  UNL     1      -0.823   6.121  14.941  1.00  0.00     0.060 C 
HETATM    5  C5  UNL     1      -1.210   7.562  15.178  1.00  0.00     0.032 C 
HETATM    6  N1  UNL     1      -1.437   7.903  16.411  1.00  0.00    -0.271 N 
ATOM      7  H1  UNL     1      -1.319   7.275  17.206  1.00  0.00     0.194 HD
HETATM    8  C14 UNL     1      -1.340   8.446  13.987  1.00  0.00     0.030 C 
HETATM    9  C15 UNL     1      -1.224   7.991  12.721  1.00  0.00    -0.069 C 
HETATM   10  C16 UNL     1      -1.410   8.996  11.617  1.00  0.00     0.035 C 
HETATM   11  C17 UNL     1      -0.696   8.720  10.300  1.00  0.00     0.010 C 
HETATM   12  C18 UNL     1       0.349   7.608  10.305  1.00  0.00    -0.002 C 
HETATM   13  C19 UNL     1      -0.189   6.329  10.979  1.00  0.00     0.031 C 
HETATM   14  C20 UNL     1       0.863   5.210  10.798  1.00  0.00     0.124 C 
HETATM   15  C21 UNL     1       2.271   5.598  11.259  1.00  0.00     0.045 C 
HETATM   16  C22 UNL     1       2.828   6.895  10.591  1.00  0.00     0.001 C 
HETATM   17  C23 UNL     1       3.207   6.552   9.135  1.00  0.00     0.019 C 
HETATM   18  C24 UNL     1       1.785   8.035  10.682  1.00  0.00     0.002 C 
HETATM   19  C25 UNL     1       2.016   8.673  12.058  1.00  0.00     0.009 C 
HETATM   20  C26 UNL     1       3.413   8.255  12.531  1.00  0.00     0.047 C 
HETATM   21  C27 UNL     1       4.047   7.469  11.380  1.00  0.00     0.128 C 
ENDROOT
BRANCH   6  22
HETATM   22  O1  UNL     1      -1.863   9.237  16.523  1.00  0.00    -0.271 OA
BRANCH  22  23
HETATM   23  C6  UNL     1      -2.241   9.473  17.869  1.00  0.00     0.303 C 
BRANCH  23  24
HETATM   24  C7  UNL     1      -2.101  10.950  18.235  1.00  0.00     0.244 C 
HETATM   25  O2  UNL     1      -1.030  11.547  18.282  1.00  0.00    -0.271 OA
HETATM   26  N2  UNL     1      -3.311  11.558  18.512  1.00  0.00    -0.355 N 
HETATM   27  H10 UNL     1      -4.143  10.990  18.586  1.00  0.00     0.162 HD
BRANCH  26  28
HETATM   28  C8  UNL     1      -3.407  12.943  18.911  1.00  0.00     0.161 C 
BRANCH  28  29
HETATM   29  C9  UNL     1      -4.839  13.314  19.192  1.00  0.00    -0.038 A 
HETATM   30  C10 UNL     1      -5.664  13.785  18.166  1.00  0.00     0.025 A 
HETATM   31  C11 UNL     1      -6.969  14.139  18.472  1.00  0.00     0.088 A 
HETATM   32  N3  UNL     1      -7.497  14.061  19.712  1.00  0.00    -0.375 N 
HETATM   33  C12 UNL     1      -6.683  13.612  20.690  1.00  0.00     0.088 A 
ATOM     34  H3  UNL     1      -8.462  14.328  19.901  1.00  0.00     0.164 HD
HETATM   35  C13 UNL     1      -5.363  13.234  20.484  1.00  0.00     0.025 A 
ENDBRANCH  28  29
ENDBRANCH  26  28
ENDBRANCH  23  24
ENDBRANCH  22  23
ENDBRANCH   6  22
BRANCH  14  36
HETATM   36  O3  UNL     1       0.471   3.990  11.406  1.00  0.00    -0.395 OA
HETATM   37  H25 UNL     1      -0.328   3.677  10.950  1.00  0.00     0.210 HD
ENDBRANCH  14  36
BRANCH  21  38
HETATM   38  O4  UNL     1       4.807   6.387  11.945  1.00  0.00    -0.381 OA
HETATM   39  H36 UNL     1       5.720   6.454  11.590  1.00  0.00     0.211 HD
ENDBRANCH  21  38
BRANCH  21  40
HETATM   40  C28 UNL     1       5.066   8.341  10.596  1.00  0.00     0.184 C 
HETATM   41  O5  UNL     1       4.664   9.251   9.851  1.00  0.00    -0.292 OA
BRANCH  40  42
HETATM   42  C29 UNL     1       6.562   8.063  10.702  1.00  0.00     0.245 C 
BRANCH  42  43
HETATM   43  O6  UNL     1       7.303   9.280  10.805  1.00  0.00    -0.393 OA
HETATM   44  H39 UNL     1       6.646  10.008  10.755  1.00  0.00     0.209 HD
ENDBRANCH  42  43
ENDBRANCH  40  42
ENDBRANCH  21  40
TORSDOF 10
ENDMDL
