MODEL 1
REMARK minimizedAffinity -6.45380116
REMARK CNNscore 0.719793737
REMARK CNNaffinity 6.52236128
REMARK  6 active torsions:
REMARK  status: ('A' for Active; 'I' for Inactive)
REMARK    1  A    between atoms: C12_13  and  C13_14 
REMARK    2  A    between atoms: C13_14  and  C15_16 
REMARK    3  A    between atoms: C15_16  and  C16_17 
REMARK    4  A    between atoms: C16_17  and  C17_18 
REMARK    5  A    between atoms: C18_19  and  C20_21 
REMARK    6  A    between atoms: C20_21  and  O3_23 
ROOT
HETATM    1  C1  UNL     1      16.072  -1.521   0.914  1.00  0.00     0.052 C 
HETATM    2  C2  UNL     1      15.022  -1.780   1.957  1.00  0.00    -0.013 C 
HETATM    3  C3  UNL     1      14.222  -2.868   2.029  1.00  0.00    -0.066 C 
HETATM    4  C4  UNL     1      14.298  -4.046   1.088  1.00  0.00     0.036 C 
HETATM    5  C5  UNL     1      14.713  -5.298   1.872  1.00  0.00     0.010 C 
HETATM    6  C6  UNL     1      13.774  -5.563   3.077  1.00  0.00     0.007 C 
HETATM    7  C7  UNL     1      13.692  -4.285   3.972  1.00  0.00     0.068 C 
HETATM    8  C8  UNL     1      12.847  -4.564   5.200  1.00  0.00     0.133 C 
HETATM    9  O1  UNL     1      12.783  -3.767   6.137  1.00  0.00    -0.298 OA
HETATM   10  C9  UNL     1      12.081  -5.856   5.235  1.00  0.00     0.089 C 
HETATM   11  C10 UNL     1      12.957  -7.128   4.991  1.00  0.00    -0.026 C 
HETATM   12  C11 UNL     1      11.927  -8.191   4.543  1.00  0.00     0.016 C 
HETATM   13  C12 UNL     1      13.755  -7.485   6.318  1.00  0.00    -0.002 C 
HETATM   14  C21 UNL     1      15.019  -6.625   6.176  1.00  0.00     0.006 C 
HETATM   15  C22 UNL     1      15.414  -6.747   4.716  1.00  0.00     0.011 C 
HETATM   16  C23 UNL     1      14.097  -6.866   3.899  1.00  0.00    -0.032 C 
HETATM   17  C24 UNL     1      14.280  -8.055   2.924  1.00  0.00     0.016 C 
HETATM   18  C25 UNL     1      13.181  -3.094   3.124  1.00  0.00     0.027 C 
HETATM   19  C26 UNL     1      12.865  -1.785   3.857  1.00  0.00     0.018 C 
HETATM   20  C27 UNL     1      14.120  -1.046   4.269  1.00  0.00     0.084 C 
HETATM   21  C28 UNL     1      14.948  -0.741   3.044  1.00  0.00     0.155 C 
HETATM   22  O4  UNL     1      15.594   0.303   2.957  1.00  0.00    -0.293 OA
ENDROOT
BRANCH  13  23
HETATM   23  C13 UNL     1      14.019  -9.016   6.574  1.00  0.00    -0.014 C 
HETATM   24  C14 UNL     1      15.527  -9.243   6.777  1.00  0.00     0.010 C 
BRANCH  23  25
HETATM   25  C15 UNL     1      13.484  -9.954   5.458  1.00  0.00     0.008 C 
BRANCH  25  26
HETATM   26  C16 UNL     1      14.510 -10.932   4.850  1.00  0.00     0.028 C 
BRANCH  26  27
HETATM   27  C17 UNL     1      13.888 -12.070   4.086  1.00  0.00    -0.013 C 
HETATM   28  C18 UNL     1      12.802 -12.794   4.429  1.00  0.00     0.008 C 
HETATM   29  C19 UNL     1      11.956 -12.583   5.647  1.00  0.00     0.055 C 
BRANCH  28  30
HETATM   30  C20 UNL     1      12.411 -13.884   3.496  1.00  0.00     0.171 C 
HETATM   31  O2  UNL     1      13.131 -14.764   3.058  1.00  0.00    -0.646 OA
BRANCH  30  32
HETATM   32  O3  UNL     1      11.112 -13.826   3.159  1.00  0.00    -0.773 OA
HETATM   33  H28 UNL     1      11.004 -14.588   2.551  1.00  0.00     0.167 HD
ENDBRANCH  30  32
ENDBRANCH  28  30
ENDBRANCH  26  27
ENDBRANCH  25  26
ENDBRANCH  23  25
ENDBRANCH  13  23
TORSDOF 6
ENDMDL
