MODEL 1
REMARK minimizedAffinity -9.47269249
REMARK  5 active torsions:
REMARK  status: ('A' for Active; 'I' for Inactive)
REMARK    1  A    between atoms: C3_3  and  C4_4 
REMARK    2  A    between atoms: C4_4  and  O2_6 
REMARK    3  A    between atoms: O2_6  and  C5_7 
REMARK    4  A    between atoms: C5_7  and  C6_8 
REMARK    5  A    between atoms: C12_14  and  C13_15 
ROOT
HETATM    1  C1  UNL     1       0.872  53.182 -21.365  1.00  0.00     0.069 C 
HETATM    2  C2  UNL     1       0.158  52.489 -22.497  1.00  0.00     0.018 C 
HETATM    3  C3  UNL     1      -0.475  51.300 -22.394  1.00  0.00     0.052 C 
HETATM    4  C12 UNL     1      -1.184  50.647 -23.575  1.00  0.00     0.104 C 
HETATM    5  C22 UNL     1      -0.879  51.373 -24.887  1.00  0.00     0.024 C 
HETATM    6  C23 UNL     1      -0.226  52.555 -24.910  1.00  0.00     0.020 C 
HETATM    7  C24 UNL     1       0.109  53.281 -26.189  1.00  0.00     0.058 C 
HETATM    8  C25 UNL     1       0.154  52.341 -27.389  1.00  0.00     0.014 C 
HETATM    9  C26 UNL     1      -1.097  51.483 -27.455  1.00  0.00     0.084 C 
HETATM   10  C27 UNL     1      -1.321  50.736 -26.160  1.00  0.00     0.158 C 
HETATM   11  O5  UNL     1      -1.908  49.656 -26.146  1.00  0.00    -0.293 OA
HETATM   12  N1  UNL     1       0.204  53.131 -23.727  1.00  0.00    -0.362 N 
HETATM   13  H22 UNL     1       0.782  53.966 -23.790  1.00  0.00     0.165 HD
ENDROOT
BRANCH   4  14
HETATM   14  C13 UNL     1      -2.679  50.563 -23.305  1.00  0.00     0.029 A 
HETATM   15  C14 UNL     1      -3.530  51.599 -23.268  1.00  0.00     0.154 A 
HETATM   16  O3  UNL     1      -4.886  51.547 -23.057  1.00  0.00    -0.321 OA
HETATM   17  C15 UNL     1      -5.455  50.313 -22.882  1.00  0.00     0.089 A 
HETATM   18  C16 UNL     1      -6.837  50.267 -22.697  1.00  0.00     0.040 A 
HETATM   19  C20 UNL     1      -4.712  49.135 -22.881  1.00  0.00     0.050 A 
HETATM   20  C17 UNL     1      -7.471  49.036 -22.511  1.00  0.00     0.026 A 
HETATM   21  C18 UNL     1      -6.718  47.860 -22.505  1.00  0.00     0.035 A 
HETATM   22 CL1  UNL     1      -7.507  46.348 -22.274  1.00  0.00    -0.084 Cl
HETATM   23  C19 UNL     1      -5.338  47.900 -22.688  1.00  0.00     0.042 A 
HETATM   24  C21 UNL     1      -3.255  49.212 -23.083  1.00  0.00     0.194 A 
HETATM   25  O4  UNL     1      -2.563  48.202 -23.052  1.00  0.00    -0.287 OA
ENDBRANCH   4  14
BRANCH   3  26
HETATM   26  C4  UNL     1      -0.498  50.552 -21.125  1.00  0.00     0.292 C 
HETATM   27  O1  UNL     1      -0.044  49.428 -20.981  1.00  0.00    -0.259 OA
BRANCH  26  28
HETATM   28  O2  UNL     1      -1.108  51.315 -20.191  1.00  0.00    -0.313 OA
BRANCH  28  29
HETATM   29  C5  UNL     1      -1.464  50.600 -19.008  1.00  0.00     0.217 C 
BRANCH  29  30
HETATM   30  C6  UNL     1      -0.421  50.891 -17.960  1.00  0.00    -0.034 A 
HETATM   31  C7  UNL     1       0.327  52.076 -18.028  1.00  0.00     0.009 A 
HETATM   32  C8  UNL     1       1.289  52.363 -17.059  1.00  0.00     0.001 A 
HETATM   33  C9  UNL     1       1.511  51.472 -16.012  1.00  0.00     0.000 A 
HETATM   34  C10 UNL     1       0.771  50.293 -15.931  1.00  0.00     0.001 A 
HETATM   35  C11 UNL     1      -0.194  50.006 -16.899  1.00  0.00     0.009 A 
ENDBRANCH  29  30
ENDBRANCH  28  29
ENDBRANCH  26  28
ENDBRANCH   3  26
TORSDOF 5
ENDMDL
