MODEL 1
REMARK minimizedAffinity -9.87583733
REMARK  7 active torsions:
REMARK  status: ('A' for Active; 'I' for Inactive)
REMARK    1  A    between atoms: C2_2  and  C4_4 
REMARK    2  A    between atoms: C4_4  and  C6_6 
REMARK    3  A    between atoms: C7_7  and  C8_8 
REMARK    4  A    between atoms: C8_8  and  O1_10 
REMARK    5  A    between atoms: C8_8  and  C10_11 
REMARK    6  A    between atoms: C15_16  and  O2_17 
REMARK    7  A    between atoms: C26_29  and  O4_30 
ROOT
HETATM    1  C10 UNL     1      -5.654   6.657  13.358  1.00  0.00     0.034 C 
HETATM    2  C11 UNL     1      -5.688   8.125  13.863  1.00  0.00     0.009 C 
HETATM    3  C12 UNL     1      -4.256   8.670  13.727  1.00  0.00     0.006 C 
HETATM    4  C13 UNL     1      -3.503   7.567  12.990  1.00  0.00     0.003 C 
HETATM    5  C14 UNL     1      -1.966   7.570  13.047  1.00  0.00     0.024 C 
HETATM    6  C15 UNL     1      -1.368   8.910  12.573  1.00  0.00     0.123 C 
HETATM    7  C16 UNL     1       0.161   8.865  12.533  1.00  0.00     0.038 C 
HETATM    8  C17 UNL     1       0.669   7.694  11.678  1.00  0.00     0.003 C 
HETATM    9  C18 UNL     1       2.194   7.742  11.539  1.00  0.00     0.083 C 
HETATM   10  C19 UNL     1       2.674   6.615  10.654  1.00  0.00     0.127 C 
HETATM   11  O3  UNL     1       3.539   6.800   9.798  1.00  0.00    -0.298 OA
HETATM   12  C20 UNL     1       2.148   5.232  10.955  1.00  0.00     0.079 C 
HETATM   13  C21 UNL     1       0.636   5.237  11.169  1.00  0.00     0.017 C 
HETATM   14  C22 UNL     1       0.141   6.310  12.182  1.00  0.00    -0.035 C 
HETATM   15  C23 UNL     1       0.690   5.956  13.587  1.00  0.00     0.016 C 
HETATM   16  C24 UNL     1      -1.435   6.372  12.192  1.00  0.00     0.003 C 
HETATM   17  C25 UNL     1      -2.121   5.037  12.578  1.00  0.00     0.038 C 
HETATM   18  C26 UNL     1      -3.659   5.120  12.609  1.00  0.00     0.127 C 
HETATM   19  C27 UNL     1      -4.148   6.259  13.525  1.00  0.00    -0.007 C 
HETATM   20  C28 UNL     1      -3.775   5.970  15.001  1.00  0.00     0.019 C 
ENDROOT
BRANCH   1  21
HETATM   21  C8  UNL     1      -6.824   5.764  13.878  1.00  0.00     0.076 C 
HETATM   22  C9  UNL     1      -6.819   4.424  13.112  1.00  0.00     0.051 C 
BRANCH  21  23
HETATM   23  C7  UNL     1      -8.196   6.405  13.885  1.00  0.00     0.007 C 
HETATM   24  C6  UNL     1      -8.924   6.776  14.954  1.00  0.00    -0.023 C 
BRANCH  24  25
HETATM   25  C4  UNL     1     -10.282   7.458  14.957  1.00  0.00     0.007 C 
HETATM   26  C5  UNL     1     -10.225   8.993  14.930  1.00  0.00     0.014 C 
BRANCH  25  27
HETATM   27  C2  UNL     1     -11.239   6.921  13.852  1.00  0.00    -0.015 C 
HETATM   28  C1  UNL     1     -12.598   6.457  14.387  1.00  0.00     0.010 C 
HETATM   29  C3  UNL     1     -11.453   7.942  12.728  1.00  0.00     0.010 C 
ENDBRANCH  25  27
ENDBRANCH  24  25
ENDBRANCH  21  23
BRANCH  21  30
HETATM   30  O1  UNL     1      -6.558   5.388  15.234  1.00  0.00    -0.386 OA
HETATM   31  H17 UNL     1      -6.364   6.208  15.735  1.00  0.00     0.211 HD
ENDBRANCH  21  30
ENDBRANCH   1  21
BRANCH  18  32
HETATM   32  O4  UNL     1      -4.184   3.872  13.062  1.00  0.00    -0.395 OA
HETATM   33  H43 UNL     1      -3.861   3.186  12.448  1.00  0.00     0.210 HD
ENDBRANCH  18  32
BRANCH   6  34
HETATM   34  O2  UNL     1      -1.861   9.221  11.272  1.00  0.00    -0.395 OA
HETATM   35  H26 UNL     1      -1.509  10.092  11.021  1.00  0.00     0.210 HD
ENDBRANCH   6  34
TORSDOF 7
ENDMDL
