MODEL 1
REMARK minimizedAffinity -9.12836838
REMARK CNNscore 0.439875007
REMARK CNNaffinity 6.91192198
REMARK  15 active torsions:
REMARK  status: ('A' for Active; 'I' for Inactive)
REMARK    1  A    between atoms: O1_2  and  C2_3 
REMARK    2  A    between atoms: C6_8  and  C7_9 
REMARK    3  A    between atoms: C7_9  and  O3_11 
REMARK    4  A    between atoms: C8_12  and  C9_13 
REMARK    5  A    between atoms: C9_13  and  C10_14 
REMARK    6  A    between atoms: C10_14  and  N2_15 
REMARK       I    between atoms: N2_15  and  C11_16 
REMARK    7  A    between atoms: C11_16  and  C12_18 
REMARK    8  A    between atoms: C12_18  and  C13_19 
REMARK    9  A    between atoms: C13_19  and  C14_20 
REMARK   10  A    between atoms: C14_20  and  O6_22 
REMARK   11  A    between atoms: O6_22  and  C15_23 
REMARK   12  A    between atoms: C15_23  and  C16_24 
REMARK   13  A    between atoms: C16_24  and  C17_26 
REMARK   14  A    between atoms: C17_26  and  O8_27 
REMARK   15  A    between atoms: C32_43  and  O10_44 
ROOT
HETATM    1  O6  UNL     1       1.563   8.851  13.055  1.00  0.00    -0.314 OA
ENDROOT
BRANCH   1   2
HETATM    2  C14 UNL     1       2.832   9.159  13.417  1.00  0.00     0.259 C 
HETATM    3  O5  UNL     1       3.207  10.303  13.665  1.00  0.00    -0.265 OA
BRANCH   2   4
HETATM    4  C13 UNL     1       3.749   7.957  13.460  1.00  0.00     0.120 C 
BRANCH   4   5
HETATM    5  C12 UNL     1       4.729   7.958  14.629  1.00  0.00     0.112 C 
BRANCH   5   6
HETATM    6  C11 UNL     1       6.157   7.728  14.172  1.00  0.00     0.218 C 
HETATM    7  N2  UNL     1       7.051   7.673  15.219  1.00  0.00    -0.361 N 
HETATM    8  H12 UNL     1       6.760   8.076  16.102  1.00  0.00     0.162 HD
HETATM    9  O4  UNL     1       6.470   7.572  12.999  1.00  0.00    -0.274 OA
BRANCH   7  10
HETATM   10  C10 UNL     1       8.483   7.612  14.972  1.00  0.00     0.127 C 
BRANCH  10  11
HETATM   11  C9  UNL     1       9.312   8.077  16.170  1.00  0.00     0.061 C 
BRANCH  11  12
HETATM   12  C8  UNL     1       9.832   9.482  16.027  1.00  0.00    -0.011 A 
HETATM   13  C6  UNL     1      10.337  10.091  14.879  1.00  0.00     0.114 A 
HETATM   14  N1  UNL     1      10.687  11.376  15.232  1.00  0.00    -0.350 N 
HETATM   15  C5  UNL     1      10.440  11.616  16.558  1.00  0.00     0.043 A 
HETATM   16  H6  UNL     1      11.084  12.047  14.586  1.00  0.00     0.166 HD
HETATM   17  C4  UNL     1      10.653  12.769  17.322  1.00  0.00     0.033 A 
HETATM   18  C36 UNL     1       9.906  10.447  17.089  1.00  0.00     0.002 A 
HETATM   19  C3  UNL     1      10.310  12.727  18.679  1.00  0.00     0.039 A 
HETATM   20  C2  UNL     1       9.774  11.573  19.249  1.00  0.00     0.069 A 
HETATM   21  C37 UNL     1       9.565  10.433  18.458  1.00  0.00     0.051 A 
BRANCH  13  22
HETATM   22  C7  UNL     1      10.530   9.639  13.530  1.00  0.00     0.194 C 
HETATM   23  O2  UNL     1      11.139  10.228  12.651  1.00  0.00    -0.645 OA
BRANCH  22  24
HETATM   24  O3  UNL     1       9.952   8.448  13.289  1.00  0.00    -0.772 OA
HETATM   25  H7  UNL     1      10.173   8.281  12.350  1.00  0.00     0.167 HD
ENDBRANCH  22  24
ENDBRANCH  13  22
BRANCH  20  26
HETATM   26  O1  UNL     1       9.406  11.423  20.560  1.00  0.00    -0.356 OA
HETATM   27  C1  UNL     1       9.669  12.516  21.432  1.00  0.00     0.210 C 
ENDBRANCH  20  26
ENDBRANCH  11  12
ENDBRANCH  10  11
ENDBRANCH   7  10
ENDBRANCH   5   6
ENDBRANCH   4   5
ENDBRANCH   2   4
ENDBRANCH   1   2
BRANCH   1  28
HETATM   28  C15 UNL     1       1.376   7.606  12.395  1.00  0.00     0.260 C 
BRANCH  28  29
HETATM   29  C16 UNL     1       0.422   6.696  13.146  1.00  0.00     0.185 C 
HETATM   30  O7  UNL     1       0.720   6.312  14.283  1.00  0.00    -0.292 OA
BRANCH  29  31
HETATM   31  C17 UNL     1      -0.954   6.367  12.495  1.00  0.00     0.128 C 
HETATM   32  C18 UNL     1      -0.965   4.913  11.922  1.00  0.00     0.047 C 
HETATM   33  C19 UNL     1      -2.364   4.329  12.200  1.00  0.00     0.009 C 
HETATM   34  C20 UNL     1      -3.180   5.511  12.713  1.00  0.00     0.002 C 
HETATM   35  C21 UNL     1      -4.476   5.220  13.485  1.00  0.00    -0.002 C 
HETATM   36  C34 UNL     1      -2.149   6.342  13.515  1.00  0.00     0.001 C 
HETATM   37  C22 UNL     1      -5.438   4.377  12.632  1.00  0.00     0.010 C 
HETATM   38  C31 UNL     1      -5.153   6.574  13.881  1.00  0.00     0.031 C 
HETATM   39  C23 UNL     1      -6.758   4.131  13.349  1.00  0.00     0.035 C 
HETATM   40  C24 UNL     1      -7.409   5.422  13.784  1.00  0.00    -0.068 C 
HETATM   41  C25 UNL     1      -8.688   5.672  13.454  1.00  0.00     0.053 C 
HETATM   42  C29 UNL     1      -6.538   6.375  14.618  1.00  0.00    -0.014 C 
HETATM   43  C26 UNL     1      -9.400   6.866  13.962  1.00  0.00     0.149 C 
HETATM   44  O9  UNL     1     -10.533   7.113  13.559  1.00  0.00    -0.293 OA
HETATM   45  C27 UNL     1      -8.718   7.688  15.025  1.00  0.00     0.084 C 
HETATM   46  C28 UNL     1      -7.228   7.770  14.734  1.00  0.00     0.022 C 
HETATM   47  C30 UNL     1      -6.416   5.763  16.034  1.00  0.00     0.020 C 
HETATM   48  C32 UNL     1      -4.166   7.560  14.572  1.00  0.00     0.124 C 
HETATM   49  C33 UNL     1      -2.817   7.699  13.836  1.00  0.00     0.045 C 
HETATM   50  C35 UNL     1      -1.702   5.639  14.827  1.00  0.00     0.019 C 
BRANCH  31  51
HETATM   51  O8  UNL     1      -1.243   7.199  11.372  1.00  0.00    -0.381 OA
HETATM   52  H19 UNL     1      -1.398   8.120  11.664  1.00  0.00     0.211 HD
ENDBRANCH  31  51
BRANCH  48  53
HETATM   53  O10 UNL     1      -3.921   7.189  15.920  1.00  0.00    -0.395 OA
HETATM   54  H40 UNL     1      -3.426   7.908  16.347  1.00  0.00     0.210 HD
ENDBRANCH  48  53
ENDBRANCH  29  31
ENDBRANCH  28  29
ENDBRANCH   1  28
TORSDOF 15
ENDMDL
