MODEL 1
REMARK minimizedAffinity -9.1617918
REMARK CNNscore 0.736925185
REMARK CNNaffinity 6.92767334
REMARK  11 active torsions:
REMARK  status: ('A' for Active; 'I' for Inactive)
REMARK    1  A    between atoms: O1_2  and  C2_3 
REMARK    2  A    between atoms: C4_5  and  O2_6 
REMARK    3  A    between atoms: O2_6  and  C5_7 
REMARK    4  A    between atoms: C8_10  and  C9_11 
REMARK    5  A    between atoms: N1_12  and  C10_14 
REMARK    6  A    between atoms: C10_14  and  C11_15 
REMARK    7  A    between atoms: C11_15  and  O3_16 
REMARK    8  A    between atoms: C17_22  and  C18_23 
REMARK    9  A    between atoms: C24_31  and  O6_32 
REMARK   10  A    between atoms: C28_36  and  O7_37 
REMARK   11  A    between atoms: C32_42  and  O9_43 
ROOT
HETATM    1  C5  UNL     1       0.057  11.124  18.767  1.00  0.00     0.127 C 
HETATM    2  C6  UNL     1      -1.425  11.460  18.980  1.00  0.00     0.033 C 
HETATM    3  C7  UNL     1      -2.365  10.647  18.088  1.00  0.00     0.021 C 
HETATM    4  C8  UNL     1      -2.050  10.728  16.550  1.00  0.00     0.026 C 
HETATM    5  C12 UNL     1      -2.514   9.349  15.915  1.00  0.00     0.009 C 
HETATM    6  C13 UNL     1      -4.054   9.155  15.945  1.00  0.00     0.007 C 
HETATM    7  C14 UNL     1      -4.492   7.799  15.397  1.00  0.00     0.013 C 
HETATM    8  C15 UNL     1      -3.964   7.517  13.969  1.00  0.00    -0.005 C 
HETATM    9  C16 UNL     1      -4.699   8.416  12.953  1.00  0.00     0.019 C 
HETATM   10  C17 UNL     1      -4.089   6.004  13.582  1.00  0.00     0.028 C 
HETATM   11  C22 UNL     1      -2.875   5.331  14.277  1.00  0.00     0.013 C 
HETATM   12  C23 UNL     1      -1.880   6.459  14.614  1.00  0.00     0.040 C 
HETATM   13  C24 UNL     1      -2.418   7.713  13.910  1.00  0.00     0.070 C 
HETATM   14  C25 UNL     1      -1.948   9.069  14.502  1.00  0.00     0.026 C 
HETATM   15  C26 UNL     1      -0.416   9.219  14.524  1.00  0.00     0.011 C 
HETATM   16  C27 UNL     1      -0.033  10.633  14.919  1.00  0.00     0.039 C 
HETATM   17  C28 UNL     1      -0.527  11.045  16.312  1.00  0.00     0.073 C 
HETATM   18  C29 UNL     1       0.324  10.425  17.427  1.00  0.00     0.071 C 
ENDROOT
BRANCH   1  19
HETATM   19  O2  UNL     1       0.550  10.290  19.826  1.00  0.00    -0.356 OA
BRANCH  19  20
HETATM   20  C4  UNL     1       1.904  10.593  20.176  1.00  0.00     0.263 C 
HETATM   21  C3  UNL     1       1.948  11.955  20.869  1.00  0.00     0.095 C 
HETATM   22  C2  UNL     1       3.270  12.132  21.599  1.00  0.00     0.156 C 
HETATM   23  C32 UNL     1       3.483  10.981  22.619  1.00  0.00     0.175 C 
HETATM   24  C30 UNL     1       2.504   9.809  22.359  1.00  0.00     0.151 C 
HETATM   25  O8  UNL     1       2.467   9.535  20.958  1.00  0.00    -0.354 OA
HETATM   26  C31 UNL     1       2.921   8.535  23.077  1.00  0.00     0.042 C 
BRANCH  22  27
HETATM   27  O1  UNL     1       3.235  13.413  22.250  1.00  0.00    -0.388 OA
HETATM   28  C1  UNL     1       2.752  13.340  23.593  1.00  0.00     0.202 C 
ENDBRANCH  22  27
BRANCH  23  29
HETATM   29  O9  UNL     1       4.850  10.540  22.498  1.00  0.00    -0.390 OA
HETATM   30  H49 UNL     1       4.916   9.986  21.692  1.00  0.00     0.210 HD
ENDBRANCH  23  29
ENDBRANCH  19  20
ENDBRANCH   1  19
BRANCH  17  31
HETATM   31  O7  UNL     1      -0.295  12.466  16.410  1.00  0.00    -0.389 OA
HETATM   32  H41 UNL     1       0.622  12.645  16.123  1.00  0.00     0.210 HD
ENDBRANCH  17  31
BRANCH   4  33
HETATM   33  C9  UNL     1      -2.840  11.918  15.975  1.00  0.00     0.068 C 
HETATM   34  N1  UNL     1      -2.534  12.471  14.847  1.00  0.00    -0.399 N 
ATOM     35  H1  UNL     1      -1.805  12.111  14.231  1.00  0.00     0.158 HD
BRANCH  34  36
HETATM   36  C10 UNL     1      -3.332  13.662  14.534  1.00  0.00     0.144 C 
BRANCH  36  37
HETATM   37  C11 UNL     1      -2.502  14.601  13.653  1.00  0.00     0.183 C 
BRANCH  37  38
HETATM   38  O3  UNL     1      -1.301  13.970  13.231  1.00  0.00    -0.399 OA
HETATM   39  H18 UNL     1      -1.555  13.326  12.548  1.00  0.00     0.209 HD
ENDBRANCH  37  38
ENDBRANCH  36  37
ENDBRANCH  34  36
ENDBRANCH   4  33
BRANCH  13  40
HETATM   40  O6  UNL     1      -2.009   7.637  12.536  1.00  0.00    -0.389 OA
HETATM   41  H35 UNL     1      -1.040   7.613  12.487  1.00  0.00     0.210 HD
ENDBRANCH  13  40
BRANCH  10  42
HETATM   42  C18 UNL     1      -5.422   5.341  13.793  1.00  0.00    -0.045 A 
HETATM   43  C19 UNL     1      -6.017   4.397  13.063  1.00  0.00     0.087 A 
HETATM   44  C20 UNL     1      -7.338   4.161  13.652  1.00  0.00     0.283 A 
HETATM   45  O4  UNL     1      -8.147   3.352  13.236  1.00  0.00    -0.260 OA
HETATM   46  O5  UNL     1      -7.514   4.993  14.713  1.00  0.00    -0.314 OA
HETATM   47  C21 UNL     1      -6.337   5.786  14.879  1.00  0.00     0.213 A 
ENDBRANCH  10  42
TORSDOF 11
ENDMDL
