MODEL 1
REMARK minimizedAffinity -9.10618305
REMARK CNNscore 0.631073415
REMARK CNNaffinity 6.92906427
REMARK  11 active torsions:
REMARK  status: ('A' for Active; 'I' for Inactive)
REMARK    1  A    between atoms: C2_2  and  O2_4 
REMARK    2  A    between atoms: O2_4  and  C3_5 
REMARK    3  A    between atoms: C4_6  and  O3_7 
REMARK    4  A    between atoms: O3_7  and  C5_8 
REMARK    5  A    between atoms: C15_18  and  C16_19 
REMARK    6  A    between atoms: C20_23  and  C21_24 
REMARK    7  A    between atoms: C21_24  and  O4_27 
REMARK    8  A    between atoms: C24_29  and  O6_30 
REMARK    9  A    between atoms: C30_36  and  O7_37 
REMARK   10  A    between atoms: C36_44  and  O9_45 
REMARK   11  A    between atoms: C37_46  and  O10_47 
ROOT
HETATM    1  C5  UNL     1      -3.782   7.461  13.130  1.00  0.00     0.133 C 
HETATM    2  C6  UNL     1      -4.064   8.829  13.759  1.00  0.00     0.034 C 
HETATM    3  C7  UNL     1      -3.711   8.822  15.238  1.00  0.00     0.013 C 
HETATM    4  C8  UNL     1      -2.261   8.434  15.475  1.00  0.00    -0.025 A 
HETATM    5  C9  UNL     1      -1.802   8.664  16.896  1.00  0.00     0.021 A 
HETATM    6  C10 UNL     1      -1.163   9.476  15.778  1.00  0.00    -0.027 A 
HETATM    7  C11 UNL     1      -1.482  10.964  15.765  1.00  0.00     0.011 C 
HETATM    8  C12 UNL     1      -0.426  11.843  16.463  1.00  0.00     0.011 C 
HETATM    9  C13 UNL     1       0.919  11.140  16.721  1.00  0.00    -0.028 C 
HETATM   10  C14 UNL     1       0.818  10.295  18.026  1.00  0.00     0.016 C 
HETATM   11  C15 UNL     1       2.169  12.092  16.796  1.00  0.00     0.057 C 
HETATM   12  C24 UNL     1       3.354  11.130  16.475  1.00  0.00     0.126 C 
HETATM   13  C25 UNL     1       2.732   9.850  15.845  1.00  0.00     0.042 C 
HETATM   14  C26 UNL     1       1.290  10.253  15.471  1.00  0.00    -0.029 C 
HETATM   15  C27 UNL     1       1.407  11.059  14.122  1.00  0.00     0.016 C 
HETATM   16  C28 UNL     1       0.223   9.133  15.198  1.00  0.00     0.006 C 
HETATM   17  C29 UNL     1       0.662   7.699  15.482  1.00  0.00     0.038 C 
HETATM   18  C30 UNL     1      -0.422   6.628  15.229  1.00  0.00     0.124 C 
HETATM   19  C31 UNL     1      -1.859   7.090  14.804  1.00  0.00     0.034 C 
HETATM   20  C32 UNL     1      -2.274   7.041  13.272  1.00  0.00    -0.015 C 
HETATM   21  C33 UNL     1      -2.136   5.614  12.677  1.00  0.00     0.018 C 
HETATM   22  C34 UNL     1      -1.416   7.961  12.382  1.00  0.00     0.018 C 
ENDROOT
BRANCH   1  23
HETATM   23  O3  UNL     1      -4.626   6.518  13.815  1.00  0.00    -0.352 OA
BRANCH  23  24
HETATM   24  C4  UNL     1      -5.993   6.542  13.404  1.00  0.00     0.292 C 
HETATM   25  C3  UNL     1      -6.498   5.083  13.346  1.00  0.00     0.218 C 
HETATM   26  C37 UNL     1      -8.024   5.102  13.368  1.00  0.00     0.183 C 
HETATM   27  C36 UNL     1      -8.529   5.760  14.663  1.00  0.00     0.173 C 
HETATM   28  C35 UNL     1      -7.481   6.708  15.268  1.00  0.00     0.205 C 
HETATM   29  O8  UNL     1      -6.771   7.402  14.249  1.00  0.00    -0.356 OA
BRANCH  25  30
HETATM   30  O2  UNL     1      -6.031   4.481  12.115  1.00  0.00    -0.309 OA
BRANCH  30  31
HETATM   31  C2  UNL     1      -5.268   3.361  12.244  1.00  0.00     0.255 C 
HETATM   32  C1  UNL     1      -5.888   2.225  11.493  1.00  0.00     0.126 C 
HETATM   33  O1  UNL     1      -4.243   3.258  12.900  1.00  0.00    -0.266 OA
ENDBRANCH  30  31
ENDBRANCH  25  30
BRANCH  26  34
HETATM   34  O10 UNL     1      -8.563   3.773  13.277  1.00  0.00    -0.390 OA
HETATM   35  H60 UNL     1      -9.527   3.881  13.157  1.00  0.00     0.210 HD
ENDBRANCH  26  34
BRANCH  27  36
HETATM   36  O9  UNL     1      -9.747   6.447  14.335  1.00  0.00    -0.391 OA
HETATM   37  H58 UNL     1      -9.961   7.053  15.064  1.00  0.00     0.210 HD
ENDBRANCH  27  36
ENDBRANCH  23  24
ENDBRANCH   1  23
BRANCH  18  38
HETATM   38  O7  UNL     1       0.111   5.599  14.401  1.00  0.00    -0.395 OA
HETATM   39  H47 UNL     1       0.617   6.015  13.682  1.00  0.00     0.210 HD
ENDBRANCH  18  38
BRANCH  11  40
HETATM   40  C16 UNL     1       2.352  13.140  17.931  1.00  0.00     0.065 C 
HETATM   41  C17 UNL     1       2.904  14.510  17.534  1.00  0.00     0.046 C 
HETATM   42  C18 UNL     1       1.057  13.330  18.737  1.00  0.00     0.041 C 
HETATM   43  C19 UNL     1       1.539  13.507  20.156  1.00  0.00     0.038 C 
HETATM   44  C20 UNL     1       2.786  12.637  20.219  1.00  0.00     0.156 C 
HETATM   45  O5  UNL     1       3.310  12.588  18.876  1.00  0.00    -0.372 OA
BRANCH  44  46
HETATM   46  C21 UNL     1       2.552  11.197  20.773  1.00  0.00     0.076 C 
HETATM   47  C22 UNL     1       1.080  10.795  20.634  1.00  0.00     0.048 C 
HETATM   48  C23 UNL     1       2.970  11.101  22.246  1.00  0.00     0.048 C 
BRANCH  46  49
HETATM   49  O4  UNL     1       3.332  10.244  20.036  1.00  0.00    -0.388 OA
HETATM   50  H35 UNL     1       3.262   9.388  20.492  1.00  0.00     0.210 HD
ENDBRANCH  46  49
ENDBRANCH  44  46
ENDBRANCH  11  40
BRANCH  12  51
HETATM   51  O6  UNL     1       4.109  10.755  17.610  1.00  0.00    -0.395 OA
HETATM   52  H37 UNL     1       4.866  11.359  17.673  1.00  0.00     0.210 HD
ENDBRANCH  12  51
TORSDOF 11
ENDMDL
