MODEL 1
REMARK minimizedAffinity -7.98722982
REMARK CNNscore 0.424576879
REMARK CNNaffinity 6.56809378
REMARK  12 active torsions:
REMARK  status: ('A' for Active; 'I' for Inactive)
REMARK    1  A    between atoms: O1_2  and  C2_3 
REMARK    2  A    between atoms: C2_3  and  C5_6 
REMARK    3  A    between atoms: C6_7  and  C7_8 
REMARK    4  A    between atoms: C7_8  and  C8_9 
REMARK    5  A    between atoms: C8_9  and  C10_11 
REMARK    6  A    between atoms: C28_31  and  O4_32 
REMARK    7  A    between atoms: O4_32  and  C29_33 
REMARK    8  A    between atoms: C30_35  and  C31_36 
REMARK    9  A    between atoms: C31_36  and  O6_37 
REMARK   10  A    between atoms: C32_38  and  O7_39 
REMARK   11  A    between atoms: C33_40  and  O8_41 
REMARK   12  A    between atoms: C34_42  and  O9_43 
ROOT
HETATM    1  C10 UNL     1      -3.368  14.113  19.666  1.00  0.00    -0.002 C 
HETATM    2  C11 UNL     1      -4.904  14.043  19.393  1.00  0.00     0.006 C 
HETATM    3  C12 UNL     1      -5.117  13.177  18.132  1.00  0.00     0.011 C 
HETATM    4  C13 UNL     1      -3.740  12.551  17.842  1.00  0.00    -0.028 C 
HETATM    5  C14 UNL     1      -3.639  11.298  18.777  1.00  0.00     0.016 C 
HETATM    6  C15 UNL     1      -3.491  12.156  16.355  1.00  0.00     0.035 C 
HETATM    7  C16 UNL     1      -4.432  11.084  15.842  1.00  0.00    -0.021 C 
HETATM    8  C17 UNL     1      -3.978   9.996  15.202  1.00  0.00     0.009 C 
HETATM    9  C18 UNL     1      -2.485   9.738  15.015  1.00  0.00     0.102 C 
HETATM   10  O2  UNL     1      -2.065  10.649  13.980  1.00  0.00    -0.304 OA
HETATM   11  C19 UNL     1      -1.830  11.885  14.535  1.00  0.00     0.270 C 
HETATM   12  O3  UNL     1      -1.583  12.883  13.881  1.00  0.00    -0.264 OA
HETATM   13  C20 UNL     1      -1.982  11.800  16.062  1.00  0.00     0.062 C 
HETATM   14  C21 UNL     1      -0.979  12.761  16.751  1.00  0.00     0.022 C 
HETATM   15  C22 UNL     1      -1.338  13.229  18.175  1.00  0.00     0.011 C 
HETATM   16  C23 UNL     1      -2.786  13.738  18.259  1.00  0.00    -0.032 C 
HETATM   17  C24 UNL     1      -2.901  14.994  17.331  1.00  0.00     0.016 C 
HETATM   18  C25 UNL     1      -1.710  10.282  16.233  1.00  0.00     0.045 C 
HETATM   19  C26 UNL     1      -0.212   9.917  16.231  1.00  0.00     0.012 C 
HETATM   20  C27 UNL     1       0.023   8.434  15.977  1.00  0.00     0.033 C 
HETATM   21  C28 UNL     1      -0.606   8.008  14.638  1.00  0.00     0.136 C 
HETATM   22  C35 UNL     1      -2.156   8.252  14.641  1.00  0.00     0.015 C 
HETATM   23  C36 UNL     1      -2.813   7.267  15.639  1.00  0.00     0.021 C 
HETATM   24  C37 UNL     1      -2.704   7.899  13.235  1.00  0.00     0.021 C 
ENDROOT
BRANCH  21  25
HETATM   25  O4  UNL     1      -0.024   8.746  13.554  1.00  0.00    -0.352 OA
BRANCH  25  26
HETATM   26  C29 UNL     1       0.989   8.044  12.816  1.00  0.00     0.292 C 
HETATM   27  O5  UNL     1       1.065   8.523  11.483  1.00  0.00    -0.348 OA
HETATM   28  C30 UNL     1       2.084   7.880  10.691  1.00  0.00     0.179 C 
HETATM   29  C32 UNL     1       2.596   6.533  11.249  1.00  0.00     0.180 C 
HETATM   30  C33 UNL     1       1.487   5.708  11.924  1.00  0.00     0.183 C 
HETATM   31  C34 UNL     1       0.544   6.569  12.782  1.00  0.00     0.204 C 
BRANCH  28  32
HETATM   32  C31 UNL     1       1.493   7.738   9.283  1.00  0.00     0.198 C 
BRANCH  32  33
HETATM   33  O6  UNL     1       2.334   8.416   8.348  1.00  0.00    -0.398 OA
HETATM   34  H46 UNL     1       2.466   9.299   8.736  1.00  0.00     0.209 HD
ENDBRANCH  32  33
ENDBRANCH  28  32
BRANCH  29  35
HETATM   35  O7  UNL     1       3.616   6.821  12.218  1.00  0.00    -0.390 OA
HETATM   36  H48 UNL     1       3.958   5.967  12.556  1.00  0.00     0.210 HD
ENDBRANCH  29  35
BRANCH  30  37
HETATM   37  O8  UNL     1       0.751   5.000  10.922  1.00  0.00    -0.390 OA
HETATM   38  H50 UNL     1       0.152   4.381  11.382  1.00  0.00     0.210 HD
ENDBRANCH  30  37
BRANCH  31  39
HETATM   39  O9  UNL     1       0.479   6.033  14.115  1.00  0.00    -0.388 OA
HETATM   40  H52 UNL     1      -0.125   6.632  14.591  1.00  0.00     0.210 HD
ENDBRANCH  31  39
ENDBRANCH  25  26
ENDBRANCH  21  25
BRANCH   1  41
HETATM   41  C8  UNL     1      -2.895  15.432  20.352  1.00  0.00    -0.010 C 
HETATM   42  C9  UNL     1      -1.363  15.574  20.319  1.00  0.00     0.010 C 
BRANCH  41  43
HETATM   43  C7  UNL     1      -3.377  15.601  21.817  1.00  0.00     0.031 C 
BRANCH  43  44
HETATM   44  C6  UNL     1      -4.704  14.993  22.177  1.00  0.00    -0.027 C 
HETATM   45  C5  UNL     1      -5.770  15.705  22.581  1.00  0.00     0.006 C 
BRANCH  45  46
HETATM   46  C2  UNL     1      -7.155  15.148  22.855  1.00  0.00     0.070 C 
HETATM   47  C3  UNL     1      -8.230  15.996  22.157  1.00  0.00     0.050 C 
HETATM   48  C4  UNL     1      -7.402  15.203  24.371  1.00  0.00     0.050 C 
BRANCH  46  49
HETATM   49  O1  UNL     1      -7.242  13.756  22.500  1.00  0.00    -0.382 OA
HETATM   50  C1  UNL     1      -8.005  12.933  23.377  1.00  0.00     0.202 C 
ENDBRANCH  46  49
ENDBRANCH  45  46
ENDBRANCH  43  44
ENDBRANCH  41  43
ENDBRANCH   1  41
TORSDOF 12
ENDMDL
