MODEL 1
REMARK minimizedAffinity -8.0299139
REMARK CNNscore 0.674732864
REMARK CNNaffinity 6.22403955
REMARK  4 active torsions:
REMARK  status: ('A' for Active; 'I' for Inactive)
REMARK    1  A    between atoms: C4_4  and  O1_5 
REMARK    2  A    between atoms: C4_4  and  C5_6 
REMARK    3  A    between atoms: C5_6  and  C6_7 
REMARK    4  A    between atoms: C6_7  and  C8_9 
ROOT
HETATM    1  C8  UNL     1     -11.070  45.805 -27.815  1.00  0.00    -0.001 C 
HETATM    2  C9  UNL     1     -10.971  44.353 -28.359  1.00  0.00     0.007 C 
HETATM    3  C10 UNL     1     -12.321  43.662 -28.023  1.00  0.00     0.015 C 
HETATM    4  C11 UNL     1     -13.245  44.807 -27.552  1.00  0.00    -0.013 C 
HETATM    5  C12 UNL     1     -13.825  45.467 -28.854  1.00  0.00     0.021 C 
HETATM    6  C13 UNL     1     -14.474  44.490 -26.691  1.00  0.00    -0.070 C 
HETATM    7  C14 UNL     1     -15.306  43.487 -27.027  1.00  0.00    -0.022 C 
HETATM    8  C15 UNL     1     -16.702  43.357 -26.500  1.00  0.00     0.034 C 
HETATM    9  C16 UNL     1     -17.234  44.718 -25.994  1.00  0.00     0.013 C 
HETATM   10  C17 UNL     1     -18.767  44.701 -25.654  1.00  0.00     0.018 C 
HETATM   11  C18 UNL     1     -19.569  44.632 -26.981  1.00  0.00     0.023 C 
HETATM   12  C19 UNL     1     -19.239  43.523 -24.788  1.00  0.00     0.023 C 
HETATM   13  C20 UNL     1     -19.170  46.000 -24.938  1.00  0.00     0.135 C 
HETATM   14  O2  UNL     1     -20.248  46.560 -25.149  1.00  0.00    -0.297 OA
HETATM   15  C21 UNL     1     -18.250  46.526 -23.866  1.00  0.00     0.080 C 
HETATM   16  C22 UNL     1     -16.834  46.647 -24.404  1.00  0.00     0.017 C 
HETATM   17  C23 UNL     1     -16.255  45.308 -24.920  1.00  0.00    -0.031 C 
HETATM   18  C24 UNL     1     -16.067  44.358 -23.701  1.00  0.00     0.016 C 
HETATM   19  C25 UNL     1     -14.801  45.487 -25.559  1.00  0.00     0.024 C 
HETATM   20  C26 UNL     1     -14.372  46.917 -25.960  1.00  0.00     0.010 C 
HETATM   21  C27 UNL     1     -12.887  47.040 -26.398  1.00  0.00     0.011 C 
HETATM   22  C28 UNL     1     -12.218  45.698 -26.765  1.00  0.00    -0.029 C 
HETATM   23  C29 UNL     1     -11.694  44.982 -25.480  1.00  0.00     0.016 C 
ENDROOT
BRANCH   1  24
HETATM   24  C6  UNL     1      -9.727  46.536 -27.505  1.00  0.00    -0.008 C 
HETATM   25  C7  UNL     1      -9.104  45.888 -26.254  1.00  0.00     0.010 C 
BRANCH  24  26
HETATM   26  C5  UNL     1      -9.791  48.079 -27.373  1.00  0.00     0.078 C 
BRANCH  26  27
HETATM   27  C4  UNL     1      -9.451  48.669 -25.989  1.00  0.00     0.191 A 
HETATM   28  C3  UNL     1      -8.073  48.333 -25.566  1.00  0.00     0.054 A 
HETATM   29  C2  UNL     1      -8.087  47.584 -24.465  1.00  0.00     0.015 A 
HETATM   30  C1  UNL     1      -6.980  46.996 -23.684  1.00  0.00     0.054 C 
HETATM   31  C30 UNL     1      -9.498  47.407 -24.106  1.00  0.00     0.291 A 
HETATM   32  O3  UNL     1     -10.277  48.091 -24.986  1.00  0.00    -0.276 OA
HETATM   33  O4  UNL     1      -9.904  46.760 -23.158  1.00  0.00    -0.260 OA
BRANCH  27  34
HETATM   34  O1  UNL     1      -9.586  50.076 -26.007  1.00  0.00    -0.362 OA
HETATM   35  H5  UNL     1      -9.201  50.408 -25.180  1.00  0.00     0.213 HD
ENDBRANCH  27  34
ENDBRANCH  26  27
ENDBRANCH  24  26
ENDBRANCH   1  24
TORSDOF 4
ENDMDL
