MODEL 1
REMARK minimizedAffinity -7.77375364
REMARK CNNscore 0.398055136
REMARK CNNaffinity 7.01922083
REMARK  12 active torsions:
REMARK  status: ('A' for Active; 'I' for Inactive)
REMARK    1  A    between atoms: C2_2  and  C3_3 
REMARK    2  A    between atoms: C3_3  and  C5_5 
REMARK    3  A    between atoms: C3_3  and  C20_20 
REMARK    4  A    between atoms: C6_6  and  C7_7 
REMARK    5  A    between atoms: C7_7  and  C9_9 
REMARK    6  A    between atoms: C9_9  and  C10_10 
REMARK    7  A    between atoms: C10_10  and  C11_11 
REMARK    8  A    between atoms: C12_12  and  C14_14 
REMARK    9  A    between atoms: C14_14  and  C15_15 
REMARK   10  A    between atoms: C15_15  and  C16_16 
REMARK   11  A    between atoms: C20_20  and  C21_21 
REMARK   12  A    between atoms: C21_21  and  C22_22 
ROOT
HETATM    1  C3  UNL     1      -3.208   3.766  11.566  1.00  0.00    -0.010 C 
HETATM    2  C4  UNL     1      -3.303   3.600  10.028  1.00  0.00     0.024 C 
ENDROOT
BRANCH   1   3
HETATM    3  C2  UNL     1      -3.263   2.344  12.124  1.00  0.00    -0.024 C 
HETATM    4  C1  UNL     1      -3.957   1.286  11.684  1.00  0.00     0.008 C 
ENDBRANCH   1   3
BRANCH   1   5
HETATM    5  C5  UNL     1      -1.864   4.440  11.859  1.00  0.00    -0.017 C 
HETATM    6  C6  UNL     1      -1.609   5.757  11.953  1.00  0.00    -0.025 C 
BRANCH   6   7
HETATM    7  C7  UNL     1      -0.240   6.328  12.256  1.00  0.00     0.004 C 
HETATM    8  C8  UNL     1       0.829   5.366  11.733  1.00  0.00     0.014 C 
BRANCH   7   9
HETATM    9  C9  UNL     1      -0.124   7.731  11.628  1.00  0.00     0.012 C 
BRANCH   9  10
HETATM   10  C10 UNL     1       1.296   8.311  11.596  1.00  0.00     0.028 C 
BRANCH  10  11
HETATM   11  C11 UNL     1       1.962   8.129  10.257  1.00  0.00    -0.024 C 
HETATM   12  C12 UNL     1       1.414   8.195   9.026  1.00  0.00    -0.087 C 
HETATM   13  C13 UNL     1      -0.045   8.475   8.763  1.00  0.00     0.043 C 
BRANCH  12  14
HETATM   14  C14 UNL     1       2.207   7.989   7.737  1.00  0.00     0.037 C 
BRANCH  14  15
HETATM   15  C15 UNL     1       2.273   6.569   7.157  1.00  0.00     0.031 C 
BRANCH  15  16
HETATM   16  C16 UNL     1       2.913   5.604   8.122  1.00  0.00    -0.024 C 
HETATM   17  C17 UNL     1       3.535   4.445   7.829  1.00  0.00    -0.091 C 
HETATM   18  C18 UNL     1       3.653   3.854   6.451  1.00  0.00     0.042 C 
HETATM   19  C19 UNL     1       4.173   3.620   8.917  1.00  0.00     0.042 C 
ENDBRANCH  15  16
ENDBRANCH  14  15
ENDBRANCH  12  14
ENDBRANCH  10  11
ENDBRANCH   9  10
ENDBRANCH   7   9
ENDBRANCH   6   7
ENDBRANCH   1   5
BRANCH   1  20
HETATM   20  C20 UNL     1      -4.362   4.734  12.001  1.00  0.00     0.018 C 
BRANCH  20  21
HETATM   21  C21 UNL     1      -4.831   4.601  13.459  1.00  0.00     0.011 C 
BRANCH  21  22
HETATM   22  C22 UNL     1      -5.516   5.799  14.183  1.00  0.00     0.022 C 
HETATM   23  C23 UNL     1      -6.997   6.041  13.913  1.00  0.00    -0.084 C 
HETATM   24  C24 UNL     1      -7.680   5.752  12.793  1.00  0.00     0.014 C 
HETATM   25  C25 UNL     1      -7.710   6.722  15.066  1.00  0.00     0.034 C 
HETATM   26  C26 UNL     1      -6.770   7.604  15.894  1.00  0.00     0.009 C 
HETATM   27  C27 UNL     1      -5.697   8.261  15.012  1.00  0.00    -0.010 C 
HETATM   28  C28 UNL     1      -4.952   9.336  15.813  1.00  0.00     0.011 C 
HETATM   29  C29 UNL     1      -4.759   7.190  14.295  1.00  0.00    -0.037 C 
HETATM   30  C30 UNL     1      -4.388   7.797  12.924  1.00  0.00     0.016 C 
HETATM   31  C31 UNL     1      -3.444   6.965  15.077  1.00  0.00     0.016 C 
ENDBRANCH  21  22
ENDBRANCH  20  21
ENDBRANCH   1  20
TORSDOF 12
ENDMDL
