MODEL 1
REMARK minimizedAffinity -7.90169287
REMARK  9 active torsions:
REMARK  status: ('A' for Active; 'I' for Inactive)
REMARK    1  A    between atoms: N1_1  and  C1_2 
REMARK    2  A    between atoms: N5_13  and  C6_14 
REMARK    3  A    between atoms: C6_14  and  C7_15 
REMARK    4  A    between atoms: C7_15  and  C8_16 
REMARK    5  A    between atoms: C7_15  and  O1_18 
REMARK    6  A    between atoms: O1_18  and  C9_19 
REMARK    7  A    between atoms: C9_19  and  P1_20 
REMARK    8  A    between atoms: P1_20  and  O3_22 
REMARK    9  A    between atoms: P1_20  and  O4_23 
ROOT
HETATM    1  C1  UNL     1       3.730  63.121 -32.447  1.00  0.00     0.109 A 
HETATM    2  N2  UNL     1       3.835  64.395 -32.004  1.00  0.00    -0.341 N 
ATOM      3  H2  UNL     1       3.211  64.751 -31.280  1.00  0.00     0.167 HD
HETATM    4  C2  UNL     1       4.789  65.186 -32.546  1.00  0.00     0.183 A 
HETATM    5  N3  UNL     1       5.701  64.877 -33.491  1.00  0.00    -0.336 N 
ATOM      6  H3  UNL     1       6.402  65.523 -33.855  1.00  0.00     0.168 HD
HETATM    7  C3  UNL     1       5.557  63.600 -33.885  1.00  0.00     0.140 A 
HETATM    8  C4  UNL     1       4.633  62.675 -33.427  1.00  0.00     0.116 A 
HETATM    9  N4  UNL     1       4.812  61.453 -34.048  1.00  0.00    -0.346 N 
ATOM     10  H4  UNL     1       4.280  60.596 -33.900  1.00  0.00     0.167 HD
HETATM   11  C5  UNL     1       5.823  61.640 -34.872  1.00  0.00     0.185 A 
HETATM   12  N5  UNL     1       6.294  62.924 -34.816  1.00  0.00    -0.325 N 
ENDROOT
BRANCH  12  13
HETATM   13  C6  UNL     1       7.381  63.480 -35.599  1.00  0.00     0.165 C 
BRANCH  13  14
HETATM   14  C7  UNL     1       8.747  63.109 -35.011  1.00  0.00     0.169 C 
BRANCH  14  15
HETATM   15  C8  UNL     1       9.405  62.039 -35.885  1.00  0.00     0.255 C 
HETATM   16  F1  UNL     1      10.504  62.561 -36.493  1.00  0.00    -0.253 F 
ENDBRANCH  14  15
BRANCH  14  17
HETATM   17  O1  UNL     1       8.525  62.647 -33.668  1.00  0.00    -0.370 OA
BRANCH  17  18
HETATM   18  C9  UNL     1       9.550  61.782 -33.166  1.00  0.00     0.292 C 
BRANCH  18  19
HETATM   19  P1  UNL     1      10.911  62.804 -32.601  1.00  0.00     0.260 P 
HETATM   20  O2  UNL     1      12.025  63.127 -33.540  1.00  0.00    -0.652 OA
BRANCH  19  21
HETATM   21  O3  UNL     1      10.244  64.141 -32.013  1.00  0.00    -0.328 OA
HETATM   22  H12 UNL     1      10.904  64.834 -31.830  1.00  0.00     0.220 HD
ENDBRANCH  19  21
BRANCH  19  23
HETATM   23  O4  UNL     1      11.447  62.129 -31.248  1.00  0.00    -0.328 OA
HETATM   24  H13 UNL     1      12.329  62.452 -30.985  1.00  0.00     0.220 HD
ENDBRANCH  19  23
ENDBRANCH  18  19
ENDBRANCH  17  18
ENDBRANCH  14  17
ENDBRANCH  13  14
ENDBRANCH  12  13
BRANCH   1  25
HETATM   25  N1  UNL     1       2.747  62.312 -31.894  1.00  0.00    -0.287 NA
HETATM   26  H1  UNL     1       2.452  62.637 -30.984  1.00  0.00     0.125 HD
HETATM   27  H2  UNL     1       2.933  61.321 -32.008  1.00  0.00     0.125 HD
ENDBRANCH   1  25
TORSDOF 9
ENDMDL
