MODEL 1
REMARK minimizedAffinity -6.35998297
REMARK CNNscore 0.508847296
REMARK CNNaffinity 6.1290822
REMARK  9 active torsions:
REMARK  status: ('A' for Active; 'I' for Inactive)
REMARK    1  A    between atoms: O1_2  and  C2_3 
REMARK    2  A    between atoms: C2_3  and  C4_5 
REMARK    3  A    between atoms: C2_3  and  C5_7 
REMARK    4  A    between atoms: C4_5  and  O2_6 
REMARK    5  A    between atoms: C5_7  and  O3_8 
REMARK    6  A    between atoms: C5_7  and  C6_9 
REMARK    7  A    between atoms: C6_9  and  C7_10 
REMARK    8  A    between atoms: C7_10  and  C8_11 
REMARK    9  A    between atoms: C8_11  and  C10_13 
ROOT
HETATM    1  C10 UNL     1     -15.982  -4.075  13.260  1.00  0.00    -0.001 C 
HETATM    2  C11 UNL     1     -16.892  -4.069  11.999  1.00  0.00     0.007 C 
HETATM    3  C12 UNL     1     -17.290  -2.610  11.720  1.00  0.00     0.015 C 
HETATM    4  C13 UNL     1     -16.341  -1.764  12.590  1.00  0.00    -0.004 C 
HETATM    5  C14 UNL     1     -15.009  -1.607  11.796  1.00  0.00     0.021 C 
HETATM    6  C15 UNL     1     -16.730  -0.353  13.003  1.00  0.00     0.007 C 
HETATM    7  C16 UNL     1     -16.250   0.238  14.126  1.00  0.00     0.007 C 
HETATM    8  C17 UNL     1     -15.347  -0.599  15.022  1.00  0.00     0.157 C 
HETATM    9  O4  UNL     1     -14.744  -0.081  15.962  1.00  0.00    -0.293 OA
HETATM   10  C18 UNL     1     -15.166  -2.093  14.772  1.00  0.00     0.094 C 
HETATM   11  C19 UNL     1     -16.259  -2.667  13.874  1.00  0.00    -0.022 C 
HETATM   12  C20 UNL     1     -17.594  -2.709  14.685  1.00  0.00     0.017 C 
HETATM   13  C21 UNL     1     -16.566   1.692  14.567  1.00  0.00    -0.007 C 
HETATM   14  C22 UNL     1     -17.518   1.579  15.783  1.00  0.00     0.021 C 
HETATM   15  C23 UNL     1     -15.282   2.471  15.000  1.00  0.00     0.022 C 
HETATM   16  C24 UNL     1     -15.305   3.984  14.784  1.00  0.00     0.080 C 
HETATM   17  C25 UNL     1     -16.710   4.533  14.770  1.00  0.00     0.135 C 
HETATM   18  O5  UNL     1     -17.041   5.444  15.527  1.00  0.00    -0.297 OA
HETATM   19  C26 UNL     1     -17.656   3.953  13.714  1.00  0.00     0.018 C 
HETATM   20  C27 UNL     1     -19.113   4.065  14.202  1.00  0.00     0.023 C 
HETATM   21  C28 UNL     1     -17.520   4.846  12.462  1.00  0.00     0.023 C 
HETATM   22  C29 UNL     1     -17.203   2.491  13.374  1.00  0.00     0.021 C 
HETATM   23  C30 UNL     1     -18.282   1.669  12.673  1.00  0.00     0.090 C 
HETATM   24  C31 UNL     1     -17.659   0.416  12.120  1.00  0.00     0.157 C 
HETATM   25  O6  UNL     1     -17.930   0.030  10.987  1.00  0.00    -0.293 OA
ENDROOT
BRANCH   1  26
HETATM   26  C8  UNL     1     -16.187  -5.359  14.120  1.00  0.00    -0.014 C 
HETATM   27  C9  UNL     1     -17.603  -5.441  14.703  1.00  0.00     0.010 C 
BRANCH  26  28
HETATM   28  C7  UNL     1     -15.149  -5.411  15.275  1.00  0.00     0.007 C 
BRANCH  28  29
HETATM   29  C6  UNL     1     -13.690  -5.455  14.784  1.00  0.00     0.035 C 
BRANCH  29  30
HETATM   30  C5  UNL     1     -12.737  -6.025  15.854  1.00  0.00     0.154 C 
BRANCH  30  31
HETATM   31  C2  UNL     1     -12.120  -7.426  15.506  1.00  0.00     0.103 C 
HETATM   32  C3  UNL     1     -13.144  -8.559  15.668  1.00  0.00     0.051 C 
BRANCH  31  33
HETATM   33  O1  UNL     1     -10.947  -7.719  16.312  1.00  0.00    -0.381 OA
HETATM   34  C1  UNL     1     -11.157  -8.493  17.485  1.00  0.00     0.202 C 
ENDBRANCH  31  33
BRANCH  31  35
HETATM   35  C4  UNL     1     -11.577  -7.466  14.056  1.00  0.00     0.204 C 
BRANCH  35  36
HETATM   36  O2  UNL     1     -10.833  -6.275  13.778  1.00  0.00    -0.398 OA
HETATM   37  H9  UNL     1     -10.133  -6.263  14.465  1.00  0.00     0.209 HD
ENDBRANCH  35  36
ENDBRANCH  31  35
ENDBRANCH  30  31
BRANCH  30  38
HETATM   38  O3  UNL     1     -11.707  -5.059  16.105  1.00  0.00    -0.392 OA
HETATM   39  H11 UNL     1     -11.072  -5.125  15.361  1.00  0.00     0.210 HD
ENDBRANCH  30  38
ENDBRANCH  29  30
ENDBRANCH  28  29
ENDBRANCH  26  28
ENDBRANCH   1  26
TORSDOF 9
ENDMDL
