MODEL 1
REMARK minimizedAffinity -9.18311119
REMARK  4 active torsions:
REMARK  status: ('A' for Active; 'I' for Inactive)
REMARK    1  A    between atoms: C4_4  and  C5_5 
REMARK    2  A    between atoms: C5_5  and  C6_6 
REMARK    3  A    between atoms: C6_6  and  C7_7 
REMARK    4  A    between atoms: C7_7  and  C9_9 
ROOT
HETATM    1  C9  UNL     1      -1.837  51.334 -22.358  1.00  0.00    -0.002 C 
HETATM    2  C10 UNL     1      -1.305  49.948 -22.740  1.00  0.00     0.006 C 
HETATM    3  C11 UNL     1      -2.552  49.139 -23.040  1.00  0.00     0.011 C 
HETATM    4  C12 UNL     1      -3.424  50.085 -23.896  1.00  0.00    -0.032 C 
HETATM    5  C13 UNL     1      -2.905  49.958 -25.362  1.00  0.00     0.016 C 
HETATM    6  C14 UNL     1      -4.952  49.672 -23.885  1.00  0.00     0.004 C 
HETATM    7  C15 UNL     1      -5.145  48.196 -24.301  1.00  0.00     0.007 C 
HETATM    8  C16 UNL     1      -6.583  47.712 -24.200  1.00  0.00     0.007 C 
HETATM    9  C17 UNL     1      -7.158  47.741 -22.773  1.00  0.00     0.010 C 
HETATM   10  C18 UNL     1      -6.904  46.458 -21.908  1.00  0.00     0.018 C 
HETATM   11  C19 UNL     1      -7.519  45.213 -22.584  1.00  0.00     0.023 C 
HETATM   12  C20 UNL     1      -5.421  46.178 -21.623  1.00  0.00     0.023 C 
HETATM   13  C21 UNL     1      -7.613  46.611 -20.549  1.00  0.00     0.135 C 
HETATM   14  O1  UNL     1      -7.818  45.649 -19.805  1.00  0.00    -0.297 OA
HETATM   15  C22 UNL     1      -8.079  47.985 -20.145  1.00  0.00     0.080 C 
HETATM   16  C23 UNL     1      -7.018  48.995 -20.527  1.00  0.00     0.018 C 
HETATM   17  C24 UNL     1      -6.793  49.041 -22.033  1.00  0.00    -0.026 A 
HETATM   18  C25 UNL     1      -7.180  50.325 -22.730  1.00  0.00     0.021 A 
HETATM   19  C26 UNL     1      -5.703  49.993 -22.579  1.00  0.00    -0.027 A 
HETATM   20  C27 UNL     1      -4.960  50.904 -21.625  1.00  0.00     0.011 C 
HETATM   21  C28 UNL     1      -4.298  52.029 -22.401  1.00  0.00     0.011 C 
HETATM   22  C29 UNL     1      -3.121  51.536 -23.283  1.00  0.00    -0.032 C 
HETATM   23  C30 UNL     1      -2.929  52.605 -24.382  1.00  0.00     0.016 C 
ENDROOT
BRANCH   1  24
HETATM   24  C7  UNL     1      -0.734  52.443 -22.340  1.00  0.00    -0.014 C 
HETATM   25  C8  UNL     1      -0.201  52.670 -20.916  1.00  0.00     0.010 C 
BRANCH  24  26
HETATM   26  C6  UNL     1       0.448  52.093 -23.287  1.00  0.00     0.008 C 
BRANCH  26  27
HETATM   27  C5  UNL     1       0.752  53.167 -24.343  1.00  0.00     0.028 C 
BRANCH  27  28
HETATM   28  C4  UNL     1       0.344  52.698 -25.715  1.00  0.00    -0.025 C 
HETATM   29  C2  UNL     1       1.043  51.939 -26.582  1.00  0.00    -0.091 C 
HETATM   30  C1  UNL     1       0.450  51.570 -27.919  1.00  0.00     0.042 C 
HETATM   31  C3  UNL     1       2.422  51.385 -26.354  1.00  0.00     0.042 C 
ENDBRANCH  27  28
ENDBRANCH  26  27
ENDBRANCH  24  26
ENDBRANCH   1  24
TORSDOF 4
ENDMDL
