MODEL 1
REMARK minimizedAffinity -9.02019882
REMARK  6 active torsions:
REMARK  status: ('A' for Active; 'I' for Inactive)
REMARK    1  A    between atoms: C4_4  and  C5_5 
REMARK    2  A    between atoms: C5_5  and  C6_6 
REMARK    3  A    between atoms: C6_6  and  C7_7 
REMARK    4  A    between atoms: C7_7  and  C9_9 
REMARK    5  A    between atoms: C12_12  and  C13_13 
REMARK    6  A    between atoms: C13_13  and  O2_15 
ROOT
HETATM    1  C9  UNL     1      -2.990   7.914  15.182  1.00  0.00    -0.001 C 
HETATM    2  C10 UNL     1      -3.221   6.395  15.375  1.00  0.00     0.007 C 
HETATM    3  C11 UNL     1      -2.204   5.679  14.457  1.00  0.00     0.026 C 
HETATM    4  C12 UNL     1      -1.207   6.784  14.032  1.00  0.00     0.076 C 
HETATM    5  C14 UNL     1      -0.359   6.607  12.782  1.00  0.00    -0.057 C 
HETATM    6  C15 UNL     1       0.060   7.678  12.064  1.00  0.00    -0.067 C 
HETATM    7  C16 UNL     1      -0.333   9.105  12.503  1.00  0.00     0.036 C 
HETATM    8  C17 UNL     1      -1.404   9.275  13.607  1.00  0.00     0.015 C 
HETATM    9  C18 UNL     1      -2.198   7.989  13.844  1.00  0.00    -0.018 C 
HETATM   10  C19 UNL     1      -3.149   7.822  12.619  1.00  0.00     0.017 C 
HETATM   11  C20 UNL     1       0.882   7.530  10.743  1.00  0.00    -0.015 C 
HETATM   12  C21 UNL     1      -0.081   7.944   9.593  1.00  0.00     0.020 C 
HETATM   13  C22 UNL     1       2.093   8.508  10.730  1.00  0.00     0.021 C 
HETATM   14  C23 UNL     1       3.353   7.889  11.305  1.00  0.00     0.080 C 
HETATM   15  C24 UNL     1       3.819   6.754  10.424  1.00  0.00     0.135 C 
HETATM   16  O3  UNL     1       5.024   6.516  10.309  1.00  0.00    -0.297 OA
HETATM   17  C25 UNL     1       2.755   5.924   9.693  1.00  0.00     0.018 C 
HETATM   18  C26 UNL     1       2.674   6.417   8.234  1.00  0.00     0.023 C 
HETATM   19  C27 UNL     1       3.253   4.460   9.623  1.00  0.00     0.023 C 
HETATM   20  C28 UNL     1       1.368   6.037  10.440  1.00  0.00     0.013 C 
HETATM   21  C29 UNL     1       1.352   5.155  11.707  1.00  0.00     0.011 C 
HETATM   22  C30 UNL     1       0.018   5.204  12.424  1.00  0.00     0.036 C 
ENDROOT
BRANCH   1  23
HETATM   23  C7  UNL     1      -4.225   8.840  15.381  1.00  0.00    -0.014 C 
HETATM   24  C8  UNL     1      -3.902   9.831  16.516  1.00  0.00     0.010 C 
BRANCH  23  25
HETATM   25  C6  UNL     1      -5.558   8.113  15.688  1.00  0.00     0.008 C 
BRANCH  25  26
HETATM   26  C5  UNL     1      -5.661   6.691  15.110  1.00  0.00     0.028 C 
BRANCH  26  27
HETATM   27  C4  UNL     1      -6.836   6.482  14.197  1.00  0.00    -0.025 C 
HETATM   28  C2  UNL     1      -6.993   5.551  13.235  1.00  0.00    -0.091 C 
HETATM   29  C1  UNL     1      -5.984   4.501  12.858  1.00  0.00     0.042 C 
HETATM   30  C3  UNL     1      -8.261   5.504  12.420  1.00  0.00     0.042 C 
ENDBRANCH  26  27
ENDBRANCH  25  26
ENDBRANCH  23  25
ENDBRANCH   1  23
BRANCH   4  31
HETATM   31  C13 UNL     1      -0.154   6.957  15.169  1.00  0.00     0.153 C 
HETATM   32  O1  UNL     1      -0.241   7.639  16.180  1.00  0.00    -0.649 OA
BRANCH  31  33
HETATM   33  O2  UNL     1       1.013   6.316  14.938  1.00  0.00    -0.776 OA
HETATM   34  H21 UNL     1       1.567   6.574  15.703  1.00  0.00     0.167 HD
ENDBRANCH  31  33
ENDBRANCH   4  31
TORSDOF 6
ENDMDL
