MODEL 1
REMARK minimizedAffinity -10.458868
REMARK CNNscore 0.784871638
REMARK CNNaffinity 7.93507385
REMARK  12 active torsions:
REMARK  status: ('A' for Active; 'I' for Inactive)
REMARK    1  A    between atoms: C19_20  and  O2_21 
REMARK    2  A    between atoms: C19_20  and  C20_22 
REMARK    3  A    between atoms: C20_22  and  C21_24 
REMARK    4  A    between atoms: C21_24  and  O4_25 
REMARK    5  A    between atoms: O4_25  and  C22_26 
REMARK    6  A    between atoms: C22_26  and  C23_28 
REMARK    7  A    between atoms: C23_28  and  C24_29 
REMARK    8  A    between atoms: C24_29  and  C25_30 
REMARK       I    between atoms: C25_30  and  N1_32 
REMARK    9  A    between atoms: N1_32  and  C26_33 
REMARK   10  A    between atoms: C26_33  and  C27_34 
REMARK   11  A    between atoms: C30_37  and  C31_38 
REMARK   12  A    between atoms: C31_38  and  O8_40 
ROOT
HETATM    1  C20 UNL     1      -5.155  50.078 -22.163  1.00  0.00     0.185 C 
HETATM    2  O3  UNL     1      -5.710  48.974 -22.102  1.00  0.00    -0.292 OA
ENDROOT
BRANCH   1   3
HETATM    3  C19 UNL     1      -4.871  50.782 -23.531  1.00  0.00     0.128 C 
HETATM    4  C14 UNL     1      -3.660  50.203 -24.344  1.00  0.00    -0.002 C 
HETATM    5  C13 UNL     1      -3.638  50.717 -25.816  1.00  0.00     0.013 C 
HETATM    6  C15 UNL     1      -3.633  48.666 -24.397  1.00  0.00     0.019 C 
HETATM    7  C16 UNL     1      -2.461  50.746 -23.533  1.00  0.00     0.002 C 
HETATM    8  C12 UNL     1      -2.450  51.600 -26.190  1.00  0.00     0.007 C 
HETATM    9  C11 UNL     1      -1.093  51.020 -25.759  1.00  0.00     0.002 C 
HETATM   10  C2  UNL     1       0.150  51.877 -26.203  1.00  0.00    -0.016 C 
HETATM   11  C10 UNL     1      -1.092  50.635 -24.240  1.00  0.00    -0.004 C 
HETATM   12  C1  UNL     1       1.414  50.969 -26.219  1.00  0.00     0.020 C 
HETATM   13  C3  UNL     1       0.059  52.411 -27.670  1.00  0.00     0.022 C 
HETATM   14  C7  UNL     1       0.315  53.013 -25.204  1.00  0.00    -0.068 C 
HETATM   15  C4  UNL     1      -0.627  53.756 -27.860  1.00  0.00     0.084 C 
HETATM   16  C5  UNL     1      -0.106  54.776 -26.886  1.00  0.00     0.149 C 
HETATM   17  O1  UNL     1      -0.041  55.972 -27.155  1.00  0.00    -0.293 OA
HETATM   18  C6  UNL     1       0.234  54.318 -25.524  1.00  0.00     0.053 C 
HETATM   19  C8  UNL     1       0.519  52.638 -23.758  1.00  0.00     0.035 C 
HETATM   20  C9  UNL     1       0.029  51.246 -23.372  1.00  0.00     0.010 C 
HETATM   21  C17 UNL     1      -2.884  52.157 -23.079  1.00  0.00     0.009 C 
HETATM   22  C18 UNL     1      -4.403  52.228 -23.262  1.00  0.00     0.047 C 
BRANCH   3  23
HETATM   23  O2  UNL     1      -6.060  50.868 -24.309  1.00  0.00    -0.381 OA
HETATM   24  H27 UNL     1      -6.375  49.962 -24.469  1.00  0.00     0.211 HD
ENDBRANCH   3  23
ENDBRANCH   1   3
BRANCH   1  25
HETATM   25  C21 UNL     1      -4.813  50.804 -20.857  1.00  0.00     0.260 C 
BRANCH  25  26
HETATM   26  O4  UNL     1      -3.985  50.068 -19.956  1.00  0.00    -0.314 OA
BRANCH  26  27
HETATM   27  C22 UNL     1      -3.025  50.790 -19.315  1.00  0.00     0.259 C 
HETATM   28  O5  UNL     1      -3.164  51.937 -18.918  1.00  0.00    -0.265 OA
BRANCH  27  29
HETATM   29  C23 UNL     1      -1.707  50.047 -19.283  1.00  0.00     0.120 C 
BRANCH  29  30
HETATM   30  C24 UNL     1      -0.641  50.615 -20.215  1.00  0.00     0.112 C 
BRANCH  30  31
HETATM   31  C25 UNL     1       0.047  51.827 -19.617  1.00  0.00     0.218 C 
HETATM   32  O6  UNL     1       0.265  52.852 -20.253  1.00  0.00    -0.274 OA
HETATM   33  N1  UNL     1       0.384  51.659 -18.294  1.00  0.00    -0.357 N 
HETATM   34  H34 UNL     1       0.299  50.742 -17.874  1.00  0.00     0.162 HD
BRANCH  33  35
HETATM   35  C26 UNL     1       1.145  52.654 -17.571  1.00  0.00     0.161 C 
BRANCH  35  36
HETATM   36  C27 UNL     1       1.912  52.019 -16.437  1.00  0.00    -0.040 A 
HETATM   37  C28 UNL     1       3.254  52.351 -16.203  1.00  0.00     0.010 A 
HETATM   38  C29 UNL     1       3.954  51.767 -15.143  1.00  0.00     0.019 A 
HETATM   39  C30 UNL     1       3.319  50.851 -14.299  1.00  0.00     0.037 A 
HETATM   40  C32 UNL     1       1.977  50.523 -14.521  1.00  0.00     0.019 A 
HETATM   41  C33 UNL     1       1.278  51.104 -15.583  1.00  0.00     0.010 A 
BRANCH  39  42
HETATM   42  C31 UNL     1       4.021  50.208 -13.162  1.00  0.00     0.176 C 
HETATM   43  O7  UNL     1       5.108  49.662 -13.211  1.00  0.00    -0.646 OA
BRANCH  42  44
HETATM   44  O8  UNL     1       3.327  50.281 -12.011  1.00  0.00    -0.773 OA
HETATM   45  H39 UNL     1       3.912  49.832 -11.361  1.00  0.00     0.167 HD
ENDBRANCH  42  44
ENDBRANCH  39  42
ENDBRANCH  35  36
ENDBRANCH  33  35
ENDBRANCH  30  31
ENDBRANCH  29  30
ENDBRANCH  27  29
ENDBRANCH  26  27
ENDBRANCH  25  26
ENDBRANCH   1  25
TORSDOF 12
ENDMDL
