MODEL 1
REMARK minimizedAffinity -6.96976471
REMARK CNNscore 0.672438145
REMARK CNNaffinity 6.11133718
REMARK  3 active torsions:
REMARK  status: ('A' for Active; 'I' for Inactive)
REMARK    1  A    between atoms: C7_7  and  C8_8 
REMARK    2  A    between atoms: C8_8  and  O2_10 
REMARK    3  A    between atoms: C21_23  and  O3_24 
ROOT
HETATM    1  C1  UNL     1     -17.232  46.586 -21.545  1.00  0.00     0.011 C 
HETATM    2  C2  UNL     1     -17.656  45.385 -22.415  1.00  0.00    -0.005 C 
HETATM    3  C3  UNL     1     -19.179  45.137 -22.282  1.00  0.00    -0.014 C 
HETATM    4  C4  UNL     1     -19.616  44.844 -20.841  1.00  0.00     0.010 C 
HETATM    5  C5  UNL     1     -19.638  43.984 -23.183  1.00  0.00     0.006 C 
HETATM    6  C6  UNL     1     -18.946  43.925 -24.543  1.00  0.00     0.021 C 
HETATM    7  C7  UNL     1     -18.248  45.235 -24.964  1.00  0.00     0.053 C 
HETATM    8  C9  UNL     1     -17.710  45.107 -26.415  1.00  0.00     0.022 C 
HETATM    9  C10 UNL     1     -16.258  45.555 -26.570  1.00  0.00     0.016 C 
HETATM   10  C11 UNL     1     -15.286  44.802 -25.626  1.00  0.00    -0.013 C 
HETATM   11  C12 UNL     1     -15.421  43.275 -25.931  1.00  0.00     0.021 C 
HETATM   12  C13 UNL     1     -15.730  45.006 -24.167  1.00  0.00    -0.069 C 
HETATM   13  C14 UNL     1     -14.819  44.812 -23.188  1.00  0.00    -0.022 C 
HETATM   14  C15 UNL     1     -13.355  44.520 -23.372  1.00  0.00     0.033 C 
HETATM   15  C16 UNL     1     -12.843  44.480 -24.830  1.00  0.00     0.007 C 
HETATM   16  C17 UNL     1     -11.271  44.653 -24.992  1.00  0.00    -0.035 C 
HETATM   17  C18 UNL     1     -10.787  46.046 -24.520  1.00  0.00     0.016 C 
HETATM   18  C19 UNL     1     -10.559  43.579 -24.116  1.00  0.00     0.012 C 
HETATM   19  C20 UNL     1      -9.068  43.426 -24.405  1.00  0.00     0.033 C 
HETATM   20  C21 UNL     1      -8.788  43.147 -25.879  1.00  0.00     0.126 C 
HETATM   21  C22 UNL     1      -9.407  44.199 -26.847  1.00  0.00    -0.017 C 
HETATM   22  C23 UNL     1      -8.622  45.525 -26.813  1.00  0.00     0.018 C 
HETATM   23  C24 UNL     1      -9.248  43.644 -28.290  1.00  0.00     0.018 C 
HETATM   24  C25 UNL     1     -10.935  44.351 -26.502  1.00  0.00     0.004 C 
HETATM   25  C26 UNL     1     -11.732  45.275 -27.446  1.00  0.00     0.007 C 
HETATM   26  C27 UNL     1     -13.246  45.105 -27.260  1.00  0.00     0.011 C 
HETATM   27  C28 UNL     1     -13.755  45.315 -25.807  1.00  0.00    -0.028 C 
HETATM   28  C29 UNL     1     -13.683  46.842 -25.511  1.00  0.00     0.016 C 
HETATM   29  C30 UNL     1     -17.149  45.595 -23.901  1.00  0.00     0.038 C 
ENDROOT
BRANCH   7  30
HETATM   30  C8  UNL     1     -19.262  46.388 -25.051  1.00  0.00     0.149 C 
HETATM   31  O1  UNL     1     -20.460  46.297 -25.267  1.00  0.00    -0.649 OA
BRANCH  30  32
HETATM   32  O2  UNL     1     -18.731  47.601 -24.791  1.00  0.00    -0.776 OA
HETATM   33  H13 UNL     1     -19.499  48.209 -24.850  1.00  0.00     0.167 HD
ENDBRANCH  30  32
ENDBRANCH   7  30
BRANCH  20  34
HETATM   34  O3  UNL     1      -7.376  43.063 -26.069  1.00  0.00    -0.395 OA
HETATM   35  H33 UNL     1      -7.039  42.367 -25.478  1.00  0.00     0.210 HD
ENDBRANCH  20  34
TORSDOF 3
ENDMDL
