MODEL 1
REMARK minimizedAffinity -8.22835636
REMARK CNNscore 0.524539471
REMARK CNNaffinity 6.43420172
REMARK  20 active torsions:
REMARK  status: ('A' for Active; 'I' for Inactive)
REMARK    1  A    between atoms: C2_2  and  C3_3 
REMARK    2  A    between atoms: C2_2  and  C28_35 
REMARK    3  A    between atoms: C4_4  and  C5_5 
REMARK    4  A    between atoms: C6_6  and  C7_7 
REMARK    5  A    between atoms: C6_6  and  C11_14 
REMARK    6  A    between atoms: C7_7  and  O1_8 
REMARK    7  A    between atoms: O1_8  and  C8_9 
REMARK    8  A    between atoms: C8_9  and  C9_10 
REMARK    9  A    between atoms: C9_10  and  O2_11 
REMARK   10  A    between atoms: C9_10  and  C10_12 
REMARK   11  A    between atoms: C10_12  and  O3_13 
REMARK   12  A    between atoms: C15_18  and  O4_19 
REMARK   13  A    between atoms: C16_20  and  C17_21 
REMARK   14  A    between atoms: C17_21  and  C18_22 
REMARK   15  A    between atoms: C18_22  and  C19_23 
REMARK   16  A    between atoms: C19_23  and  O5_24 
REMARK   17  A    between atoms: C21_26  and  C23_28 
REMARK   18  A    between atoms: C26_32  and  O7_34 
REMARK   19  A    between atoms: C28_35  and  C29_36 
REMARK   20  A    between atoms: C29_36  and  C30_37 
ROOT
HETATM    1  C11 UNL     1      -7.476  46.845 -27.984  1.00  0.00     0.046 C 
HETATM    2  C12 UNL     1      -8.492  46.012 -28.779  1.00  0.00     0.013 C 
HETATM    3  C13 UNL     1      -9.555  45.685 -27.741  1.00  0.00     0.017 C 
HETATM    4  C14 UNL     1      -9.723  46.976 -26.875  1.00  0.00     0.024 C 
HETATM    5  C15 UNL     1      -8.433  47.811 -27.241  1.00  0.00     0.138 C 
HETATM    6  C16 UNL     1      -9.648  46.562 -25.337  1.00  0.00     0.029 C 
HETATM    7  C20 UNL     1     -10.858  45.685 -24.978  1.00  0.00    -0.066 C 
HETATM    8  C21 UNL     1     -10.813  44.411 -24.511  1.00  0.00    -0.021 C 
HETATM    9  C22 UNL     1     -12.027  43.571 -24.199  1.00  0.00     0.052 C 
HETATM   10  C24 UNL     1     -12.162  46.431 -25.197  1.00  0.00     0.038 C 
HETATM   11  C25 UNL     1     -12.305  46.868 -26.649  1.00  0.00     0.042 C 
HETATM   12  C26 UNL     1     -11.103  47.675 -27.203  1.00  0.00     0.065 C 
HETATM   13  C27 UNL     1     -11.398  47.906 -28.705  1.00  0.00     0.047 C 
ENDROOT
BRANCH   1  14
HETATM   14  C6  UNL     1      -6.273  47.350 -28.794  1.00  0.00    -0.050 C 
HETATM   15  C5  UNL     1      -5.156  47.982 -28.361  1.00  0.00     0.005 C 
BRANCH  15  16
HETATM   16  C4  UNL     1      -4.738  48.287 -27.010  1.00  0.00     0.001 C 
HETATM   17  C3  UNL     1      -3.548  48.831 -26.707  1.00  0.00     0.006 C 
BRANCH  17  18
HETATM   18  C2  UNL     1      -3.053  49.128 -25.364  1.00  0.00    -0.067 C 
HETATM   19  C1  UNL     1      -3.515  48.418 -24.321  1.00  0.00     0.019 C 
BRANCH  18  20
HETATM   20  C28 UNL     1      -2.002  50.207 -25.145  1.00  0.00     0.041 C 
BRANCH  20  21
HETATM   21  C29 UNL     1      -1.277  50.666 -26.421  1.00  0.00     0.032 C 
BRANCH  21  22
HETATM   22  C30 UNL     1       0.209  50.831 -26.229  1.00  0.00    -0.024 C 
HETATM   23  C31 UNL     1       1.097  51.399 -27.067  1.00  0.00    -0.091 C 
HETATM   24  C32 UNL     1       2.552  51.500 -26.687  1.00  0.00     0.042 C 
HETATM   25  C33 UNL     1       0.775  51.969 -28.421  1.00  0.00     0.042 C 
ENDBRANCH  21  22
ENDBRANCH  20  21
ENDBRANCH  18  20
ENDBRANCH  17  18
ENDBRANCH  15  16
BRANCH  14  26
HETATM   26  C7  UNL     1      -6.317  46.995 -30.274  1.00  0.00     0.202 C 
BRANCH  26  27
HETATM   27  O1  UNL     1      -6.133  48.166 -31.077  1.00  0.00    -0.384 OA
BRANCH  27  28
HETATM   28  C8  UNL     1      -4.977  48.087 -31.922  1.00  0.00     0.201 C 
BRANCH  28  29
HETATM   29  C9  UNL     1      -5.379  47.453 -33.262  1.00  0.00     0.165 C 
BRANCH  29  30
HETATM   30  O2  UNL     1      -4.786  46.149 -33.364  1.00  0.00    -0.391 OA
HETATM   31  H11 UNL     1      -3.965  46.207 -32.831  1.00  0.00     0.210 HD
ENDBRANCH  29  30
BRANCH  29  32
HETATM   32  C10 UNL     1      -4.961  48.280 -34.487  1.00  0.00     0.198 C 
BRANCH  32  33
HETATM   33  O3  UNL     1      -3.720  48.953 -34.290  1.00  0.00    -0.398 OA
HETATM   34  H14 UNL     1      -3.097  48.256 -34.007  1.00  0.00     0.209 HD
ENDBRANCH  32  33
ENDBRANCH  29  32
ENDBRANCH  28  29
ENDBRANCH  27  28
ENDBRANCH  26  27
ENDBRANCH  14  26
ENDBRANCH   1  14
BRANCH   5  35
HETATM   35  O4  UNL     1      -8.730  48.952 -28.031  1.00  0.00    -0.394 OA
HETATM   36  H21 UNL     1      -9.364  49.482 -27.506  1.00  0.00     0.210 HD
ENDBRANCH   5  35
BRANCH   6  37
HETATM   37  C17 UNL     1      -9.506  47.731 -24.312  1.00  0.00     0.012 C 
BRANCH  37  38
HETATM   38  C18 UNL     1      -8.219  47.642 -23.482  1.00  0.00     0.027 C 
BRANCH  38  39
HETATM   39  C19 UNL     1      -7.553  49.006 -23.341  1.00  0.00     0.164 C 
BRANCH  39  40
HETATM   40  O5  UNL     1      -7.910  49.834 -24.440  1.00  0.00    -0.401 OA
HETATM   41  H29 UNL     1      -7.652  49.371 -25.256  1.00  0.00     0.209 HD
ENDBRANCH  39  40
ENDBRANCH  38  39
ENDBRANCH  37  38
ENDBRANCH   6  37
BRANCH  12  42
HETATM   42  O7  UNL     1     -11.096  48.973 -26.585  1.00  0.00    -0.389 OA
HETATM   43  H41 UNL     1     -11.954  49.396 -26.772  1.00  0.00     0.210 HD
ENDBRANCH  12  42
BRANCH   8  44
HETATM   44  C23 UNL     1      -9.524  43.686 -24.245  1.00  0.00     0.265 C 
HETATM   45  O6  UNL     1      -8.911  43.801 -23.189  1.00  0.00    -0.302 OA
ENDBRANCH   8  44
TORSDOF 20
ENDMDL
