MODEL 1
REMARK minimizedAffinity -7.14732218
REMARK CNNscore 0.779652238
REMARK CNNaffinity 7.49625587
REMARK  6 active torsions:
REMARK  status: ('A' for Active; 'I' for Inactive)
REMARK    1  A    between atoms: C4_4  and  C5_5 
REMARK    2  A    between atoms: C5_5  and  C6_6 
REMARK    3  A    between atoms: C6_6  and  C7_7 
REMARK    4  A    between atoms: C7_7  and  C9_9 
REMARK    5  A    between atoms: C17_17  and  C18_18 
REMARK    6  A    between atoms: C18_18  and  O1_21 
ROOT
HETATM    1  C9  UNL     1       2.645  55.373  -8.111  1.00  0.00    -0.002 C 
HETATM    2  C10 UNL     1       3.654  54.240  -8.453  1.00  0.00     0.006 C 
HETATM    3  C11 UNL     1       2.839  53.129  -9.173  1.00  0.00     0.011 C 
HETATM    4  C12 UNL     1       1.362  53.507  -8.914  1.00  0.00    -0.032 C 
HETATM    5  C13 UNL     1       1.068  52.999  -7.462  1.00  0.00     0.016 C 
HETATM    6  C14 UNL     1       0.316  52.954  -9.926  1.00  0.00     0.003 C 
HETATM    7  C15 UNL     1       0.213  51.429  -9.988  1.00  0.00     0.009 C 
HETATM    8  C16 UNL     1      -0.457  51.029 -11.299  1.00  0.00     0.042 C 
HETATM    9  C17 UNL     1      -1.841  51.685 -11.591  1.00  0.00     0.095 C 
HETATM   10  O2  UNL     1      -2.745  50.971 -10.713  1.00  0.00    -0.377 OA
HETATM   11  C21 UNL     1      -4.119  51.324 -10.811  1.00  0.00     0.169 C 
HETATM   12  C22 UNL     1      -4.394  52.808 -10.639  1.00  0.00     0.027 C 
HETATM   13  C23 UNL     1      -3.341  53.742 -11.231  1.00  0.00     0.010 C 
HETATM   14  C24 UNL     1      -1.889  53.211 -11.181  1.00  0.00     0.032 C 
HETATM   15  C25 UNL     1      -1.121  53.597  -9.822  1.00  0.00    -0.033 C 
HETATM   16  C26 UNL     1      -1.917  53.123  -8.583  1.00  0.00     0.016 C 
HETATM   17  C27 UNL     1      -1.009  55.164  -9.691  1.00  0.00     0.011 C 
HETATM   18  C28 UNL     1       0.091  55.692  -8.737  1.00  0.00     0.011 C 
HETATM   19  C29 UNL     1       1.460  55.081  -9.074  1.00  0.00    -0.032 C 
HETATM   20  C30 UNL     1       1.829  55.555 -10.514  1.00  0.00     0.016 C 
ENDROOT
BRANCH   1  21
HETATM   21  C7  UNL     1       3.202  56.803  -7.883  1.00  0.00    -0.014 C 
HETATM   22  C8  UNL     1       2.494  57.436  -6.668  1.00  0.00     0.010 C 
BRANCH  21  23
HETATM   23  C6  UNL     1       4.716  57.090  -7.796  1.00  0.00     0.008 C 
BRANCH  23  24
HETATM   24  C5  UNL     1       5.442  56.703  -6.506  1.00  0.00     0.028 C 
BRANCH  24  25
HETATM   25  C4  UNL     1       6.138  57.887  -5.885  1.00  0.00    -0.025 C 
HETATM   26  C2  UNL     1       7.369  57.923  -5.342  1.00  0.00    -0.091 C 
HETATM   27  C1  UNL     1       8.331  56.765  -5.314  1.00  0.00     0.042 C 
HETATM   28  C3  UNL     1       7.906  59.198  -4.745  1.00  0.00     0.042 C 
ENDBRANCH  24  25
ENDBRANCH  23  24
ENDBRANCH  21  23
ENDBRANCH   1  21
BRANCH   9  29
HETATM   29  C18 UNL     1      -2.194  51.404 -13.149  1.00  0.00     0.082 C 
HETATM   30  C19 UNL     1      -2.993  50.095 -13.327  1.00  0.00     0.049 C 
HETATM   31  C20 UNL     1      -0.954  51.358 -14.066  1.00  0.00     0.049 C 
BRANCH  29  32
HETATM   32  O1  UNL     1      -3.014  52.448 -13.705  1.00  0.00    -0.388 OA
HETATM   33  H35 UNL     1      -3.230  52.211 -14.623  1.00  0.00     0.210 HD
ENDBRANCH  29  32
ENDBRANCH   9  29
TORSDOF 6
ENDMDL
