MODEL 1
REMARK minimizedAffinity -7.74748087
REMARK CNNscore 0.650740504
REMARK CNNaffinity 7.2510581
REMARK  13 active torsions:
REMARK  status: ('A' for Active; 'I' for Inactive)
REMARK    1  A    between atoms: O1_2  and  C2_3 
REMARK    2  A    between atoms: C2_3  and  C3_4 
REMARK    3  A    between atoms: C3_4  and  C4_5 
REMARK    4  A    between atoms: C4_5  and  N1_6 
REMARK    5  A    between atoms: N1_6  and  C5_7 
REMARK    6  A    between atoms: C5_7  and  C6_8 
REMARK    7  A    between atoms: C10_12  and  O2_13 
REMARK    8  A    between atoms: C16_19  and  O3_20 
REMARK    9  A    between atoms: C20_24  and  C21_25 
REMARK   10  A    between atoms: C21_25  and  C23_27 
REMARK   11  A    between atoms: C31_35  and  O4_36 
REMARK   12  A    between atoms: C34_39  and  C35_40 
REMARK   13  A    between atoms: C36_42  and  O6_43 
ROOT
HETATM    1  C6  UNL     1     -10.580   7.689  14.313  1.00  0.00    -0.022 C 
HETATM    2  C7  UNL     1      -9.995   8.723  14.966  1.00  0.00    -0.014 C 
HETATM    3  C8  UNL     1     -10.832   9.761  15.670  1.00  0.00     0.021 C 
HETATM    4  C9  UNL     1     -10.292  10.471  16.916  1.00  0.00     0.051 C 
HETATM    5  C10 UNL     1     -11.530  11.290  17.351  1.00  0.00     0.098 C 
HETATM    6  C11 UNL     1     -12.707  10.245  17.212  1.00  0.00    -0.002 C 
HETATM    7  C12 UNL     1     -14.038  10.887  16.802  1.00  0.00     0.019 C 
HETATM    8  C13 UNL     1     -12.904   9.475  18.552  1.00  0.00     0.013 C 
HETATM    9  C14 UNL     1     -12.988  10.364  19.780  1.00  0.00     0.010 C 
HETATM   10  C15 UNL     1     -11.694  11.189  19.967  1.00  0.00     0.041 C 
HETATM   11  C16 UNL     1     -11.460  12.059  18.721  1.00  0.00     0.095 C 
HETATM   12  C17 UNL     1     -10.169  12.894  18.846  1.00  0.00     0.049 C 
HETATM   13  C18 UNL     1      -9.504  12.904  20.248  1.00  0.00     0.025 C 
HETATM   14  C19 UNL     1      -8.334  13.919  20.165  1.00  0.00     0.012 C 
HETATM   15  C20 UNL     1      -7.488  14.265  21.413  1.00  0.00    -0.010 C 
HETATM   16  C28 UNL     1      -7.319  13.080  22.382  1.00  0.00     0.005 C 
HETATM   17  C29 UNL     1      -8.592  12.456  22.968  1.00  0.00     0.010 C 
HETATM   18  C30 UNL     1      -9.869  13.286  22.783  1.00  0.00     0.050 C 
HETATM   19  C31 UNL     1     -10.874  13.027  23.911  1.00  0.00     0.125 C 
HETATM   20  C32 UNL     1     -11.446  11.618  23.893  1.00  0.00     0.033 C 
HETATM   21  C33 UNL     1     -11.505  11.002  22.490  1.00  0.00     0.023 C 
HETATM   22  C34 UNL     1     -11.696  12.020  21.329  1.00  0.00     0.051 C 
HETATM   23  C36 UNL     1     -10.548  13.139  21.374  1.00  0.00     0.082 C 
HETATM   24  C37 UNL     1     -12.166   9.182  16.178  1.00  0.00     0.036 C 
HETATM   25  C38 UNL     1     -12.829   8.609  14.967  1.00  0.00    -0.035 C 
HETATM   26  C39 UNL     1     -13.857   8.967  14.209  1.00  0.00     0.088 C 
HETATM   27  C40 UNL     1     -13.797   8.117  13.019  1.00  0.00     0.284 C 
HETATM   28  O7  UNL     1     -14.613   8.157  12.111  1.00  0.00    -0.260 OA
HETATM   29  O8  UNL     1     -12.695   7.319  13.071  1.00  0.00    -0.304 OA
HETATM   30  C41 UNL     1     -12.093   7.460  14.349  1.00  0.00     0.192 C 
ENDROOT
BRANCH   1  31
HETATM   31  C5  UNL     1      -9.771   6.636  13.606  1.00  0.00     0.306 C 
BRANCH  31  32
HETATM   32  N1  UNL     1      -8.983   5.891  14.582  1.00  0.00     0.087 N 
HETATM   33  H10 UNL     1      -9.182   4.893  14.497  1.00  0.00     0.316 HD
BRANCH  32  34
HETATM   34  C4  UNL     1      -7.554   6.142  14.435  1.00  0.00     0.272 C 
BRANCH  34  35
HETATM   35  C3  UNL     1      -6.872   5.023  13.642  1.00  0.00     0.056 C 
BRANCH  35  36
HETATM   36  C2  UNL     1      -7.731   4.480  12.501  1.00  0.00     0.168 C 
BRANCH  36  37
HETATM   37  O1  UNL     1      -8.383   3.278  12.919  1.00  0.00    -0.396 OA
HETATM   38  C1  UNL     1      -7.569   2.126  12.737  1.00  0.00     0.201 C 
ENDBRANCH  36  37
ENDBRANCH  35  36
ENDBRANCH  34  35
ENDBRANCH  32  34
ENDBRANCH  31  32
ENDBRANCH   1  31
BRANCH   5  39
HETATM   39  O2  UNL     1     -11.717  12.322  16.343  1.00  0.00    -0.386 OA
HETATM   40  H17 UNL     1     -10.905  12.862  16.305  1.00  0.00     0.210 HD
ENDBRANCH   5  39
BRANCH  11  41
HETATM   41  O3  UNL     1     -12.547  13.012  18.694  1.00  0.00    -0.386 OA
HETATM   42  H26 UNL     1     -12.663  13.271  17.759  1.00  0.00     0.210 HD
ENDBRANCH  11  41
BRANCH  22  43
HETATM   43  C35 UNL     1     -13.099  12.649  21.488  1.00  0.00     0.244 C 
HETATM   44  O5  UNL     1     -13.938  12.260  22.302  1.00  0.00    -0.306 OA
ENDBRANCH  22  43
BRANCH  23  45
HETATM   45  O6  UNL     1     -11.123  14.432  21.090  1.00  0.00    -0.388 OA
HETATM   46  H58 UNL     1     -11.567  14.731  21.914  1.00  0.00     0.210 HD
ENDBRANCH  23  45
BRANCH  15  47
HETATM   47  C21 UNL     1      -6.091  14.901  21.009  1.00  0.00    -0.011 C 
HETATM   48  C22 UNL     1      -5.084  14.818  22.174  1.00  0.00     0.011 C 
BRANCH  47  49
HETATM   49  C23 UNL     1      -5.523  14.243  19.708  1.00  0.00    -0.010 C 
HETATM   50  C24 UNL     1      -4.771  12.912  19.860  1.00  0.00     0.005 C 
HETATM   51  C25 UNL     1      -4.080  12.731  18.512  1.00  0.00     0.000 C 
HETATM   52  C26 UNL     1      -3.786  14.148  18.014  1.00  0.00     0.000 C 
HETATM   53  C27 UNL     1      -4.442  15.095  19.020  1.00  0.00     0.005 C 
ENDBRANCH  47  49
ENDBRANCH  15  47
BRANCH  19  54
HETATM   54  O4  UNL     1     -11.927  13.982  23.750  1.00  0.00    -0.395 OA
HETATM   55  H52 UNL     1     -12.379  14.087  24.612  1.00  0.00     0.210 HD
ENDBRANCH  19  54
TORSDOF 13
ENDMDL
