MODEL 1
REMARK minimizedAffinity -9.38195705
REMARK CNNscore 0.448492676
REMARK CNNaffinity 7.18133926
REMARK  15 active torsions:
REMARK  status: ('A' for Active; 'I' for Inactive)
REMARK    1  A    between atoms: O1_2  and  C2_3 
REMARK    2  A    between atoms: C3_4  and  O2_5 
REMARK    3  A    between atoms: C4_6  and  O3_7 
REMARK    4  A    between atoms: C5_8  and  O4_9 
REMARK    5  A    between atoms: O4_9  and  C6_10 
REMARK    6  A    between atoms: C6_10  and  C7_11 
REMARK    7  A    between atoms: C6_10  and  C17_22 
REMARK    8  A    between atoms: C7_11  and  C8_12 
REMARK    9  A    between atoms: C19_24  and  C20_25 
REMARK   10  A    between atoms: C20_25  and  C21_26 
REMARK   11  A    between atoms: C22_27  and  O6_28 
REMARK   12  A    between atoms: C26_33  and  C27_34 
REMARK   13  A    between atoms: C28_36  and  O8_37 
REMARK   14  A    between atoms: C29_39  and  C30_40 
REMARK   15  A    between atoms: C30_40  and  O10_41 
ROOT
HETATM    1  C6  UNL     1      -1.655  50.700 -23.734  1.00  0.00     0.153 C 
ENDROOT
BRANCH   1   2
HETATM    2  O4  UNL     1      -2.112  51.372 -24.922  1.00  0.00    -0.349 OA
BRANCH   2   3
HETATM    3  C5  UNL     1      -1.618  50.818 -26.144  1.00  0.00     0.292 C 
HETATM    4  C4  UNL     1      -2.137  51.617 -27.370  1.00  0.00     0.204 C 
HETATM    5  C3  UNL     1      -1.203  52.770 -27.789  1.00  0.00     0.183 C 
HETATM    6  C2  UNL     1      -0.406  53.260 -26.576  1.00  0.00     0.183 C 
HETATM    7  C29 UNL     1       0.443  52.062 -26.079  1.00  0.00     0.179 C 
HETATM    8  O9  UNL     1      -0.196  50.779 -26.170  1.00  0.00    -0.348 OA
BRANCH   4   9
HETATM    9  O3  UNL     1      -2.302  50.762 -28.519  1.00  0.00    -0.388 OA
HETATM   10  H8  UNL     1      -1.465  50.275 -28.643  1.00  0.00     0.210 HD
ENDBRANCH   4   9
BRANCH   5  11
HETATM   11  O2  UNL     1      -2.008  53.806 -28.368  1.00  0.00    -0.390 OA
HETATM   12  H6  UNL     1      -2.493  53.398 -29.112  1.00  0.00     0.210 HD
ENDBRANCH   5  11
BRANCH   6  13
HETATM   13  O1  UNL     1       0.518  54.333 -26.838  1.00  0.00    -0.385 OA
HETATM   14  C1  UNL     1      -0.053  55.632 -26.703  1.00  0.00     0.202 C 
ENDBRANCH   6  13
BRANCH   7  15
HETATM   15  C30 UNL     1       0.942  52.314 -24.656  1.00  0.00     0.198 C 
BRANCH  15  16
HETATM   16  O10 UNL     1       0.928  53.692 -24.278  1.00  0.00    -0.398 OA
HETATM   17  H43 UNL     1       0.188  54.115 -24.763  1.00  0.00     0.209 HD
ENDBRANCH  15  16
ENDBRANCH   7  15
ENDBRANCH   2   3
ENDBRANCH   1   2
BRANCH   1  18
HETATM   18  C7  UNL     1      -2.471  49.385 -23.537  1.00  0.00     0.047 C 
BRANCH  18  19
HETATM   19  C8  UNL     1      -4.022  49.365 -23.832  1.00  0.00    -0.028 C 
HETATM   20  C9  UNL     1      -4.513  50.767 -24.254  1.00  0.00     0.016 C 
HETATM   21  C10 UNL     1      -4.368  48.273 -24.932  1.00  0.00    -0.009 C 
HETATM   22  C11 UNL     1      -3.703  48.448 -26.303  1.00  0.00     0.011 C 
HETATM   23  C12 UNL     1      -5.887  48.125 -25.154  1.00  0.00     0.012 C 
HETATM   24  C13 UNL     1      -6.606  47.741 -23.874  1.00  0.00     0.079 C 
HETATM   25  C14 UNL     1      -6.264  48.713 -22.776  1.00  0.00     0.131 C 
HETATM   26  O5  UNL     1      -7.153  49.241 -22.108  1.00  0.00    -0.298 OA
HETATM   27  C15 UNL     1      -4.773  48.926 -22.505  1.00  0.00     0.060 C 
HETATM   28  C16 UNL     1      -4.606  49.851 -21.292  1.00  0.00     0.018 C 
ENDBRANCH  18  19
ENDBRANCH   1  18
BRANCH   1  29
HETATM   29  C17 UNL     1      -1.806  51.622 -22.511  1.00  0.00    -0.059 C 
HETATM   30  C18 UNL     1      -2.892  52.655 -22.614  1.00  0.00     0.046 C 
HETATM   31  C19 UNL     1      -0.961  51.573 -21.455  1.00  0.00    -0.017 C 
BRANCH  31  32
HETATM   32  C20 UNL     1      -0.780  52.515 -20.284  1.00  0.00     0.072 C 
BRANCH  32  33
HETATM   33  C21 UNL     1      -0.260  51.962 -18.976  1.00  0.00     0.014 A 
HETATM   34  C22 UNL     1       0.875  52.506 -18.358  1.00  0.00     0.097 A 
HETATM   35  C23 UNL     1       1.371  52.006 -17.136  1.00  0.00     0.074 A 
HETATM   36 CL1  UNL     1       2.809  52.734 -16.484  1.00  0.00    -0.081 Cl
HETATM   37  C24 UNL     1       0.701  50.966 -16.466  1.00  0.00    -0.021 A 
HETATM   38  C25 UNL     1       1.172  50.432 -15.137  1.00  0.00     0.051 C 
HETATM   39  C26 UNL     1      -0.456  50.434 -17.078  1.00  0.00     0.043 A 
HETATM   40  C28 UNL     1      -0.918  50.914 -18.318  1.00  0.00     0.088 A 
BRANCH  34  41
HETATM   41  O6  UNL     1       1.496  53.567 -18.977  1.00  0.00    -0.358 OA
HETATM   42  H34 UNL     1       2.455  53.496 -18.773  1.00  0.00     0.217 HD
ENDBRANCH  34  41
BRANCH  39  43
HETATM   43  C27 UNL     1      -1.257  49.391 -16.401  1.00  0.00     0.273 C 
HETATM   44  O7  UNL     1      -1.339  48.245 -16.827  1.00  0.00    -0.301 OA
ENDBRANCH  39  43
BRANCH  40  45
HETATM   45  O8  UNL     1      -2.028  50.386 -18.929  1.00  0.00    -0.359 OA
HETATM   46  H39 UNL     1      -2.161  49.454 -18.673  1.00  0.00     0.217 HD
ENDBRANCH  40  45
ENDBRANCH  32  33
ENDBRANCH  31  32
ENDBRANCH   1  29
TORSDOF 15
ENDMDL
