MODEL 1
REMARK minimizedAffinity -6.80603504
REMARK CNNscore 0.853287518
REMARK CNNaffinity 7.46785355
REMARK  7 active torsions:
REMARK  status: ('A' for Active; 'I' for Inactive)
REMARK    1  A    between atoms: C2_2  and  C3_3 
REMARK    2  A    between atoms: C2_2  and  C9_10 
REMARK    3  A    between atoms: C3_3  and  C4_4 
REMARK    4  A    between atoms: C5_5  and  C6_6 
REMARK    5  A    between atoms: C6_6  and  O1_9 
REMARK    6  A    between atoms: C17_18  and  C18_19 
REMARK    7  A    between atoms: C18_19  and  O2_22 
ROOT
HETATM    1  C9  UNL     1      -2.169  51.993 -10.505  1.00  0.00    -0.002 C 
HETATM    2  C10 UNL     1      -2.507  51.710  -9.005  1.00  0.00     0.006 C 
HETATM    3  C11 UNL     1      -1.330  52.237  -8.156  1.00  0.00     0.011 C 
HETATM    4  C12 UNL     1      -0.217  52.513  -9.184  1.00  0.00    -0.032 C 
HETATM    5  C13 UNL     1       0.433  51.118  -9.475  1.00  0.00     0.016 C 
HETATM    6  C14 UNL     1       0.848  53.560  -8.754  1.00  0.00     0.003 C 
HETATM    7  C15 UNL     1       1.533  53.269  -7.406  1.00  0.00     0.009 C 
HETATM    8  C16 UNL     1       2.877  53.964  -7.219  1.00  0.00     0.042 C 
HETATM    9  C17 UNL     1       3.046  55.349  -7.897  1.00  0.00     0.095 C 
HETATM   10  O3  UNL     1       4.457  55.687  -7.836  1.00  0.00    -0.377 OA
HETATM   11  C21 UNL     1       5.278  55.068  -8.812  1.00  0.00     0.169 C 
HETATM   12  C22 UNL     1       4.976  55.618 -10.189  1.00  0.00     0.027 C 
HETATM   13  C23 UNL     1       3.514  55.998 -10.375  1.00  0.00     0.010 C 
HETATM   14  C24 UNL     1       2.517  55.344  -9.394  1.00  0.00     0.032 C 
HETATM   15  C25 UNL     1       1.839  53.990  -9.897  1.00  0.00    -0.033 C 
HETATM   16  C26 UNL     1       2.888  52.914 -10.254  1.00  0.00     0.016 C 
HETATM   17  C27 UNL     1       1.042  54.279 -11.227  1.00  0.00     0.011 C 
HETATM   18  C28 UNL     1      -0.113  53.311 -11.577  1.00  0.00     0.011 C 
HETATM   19  C29 UNL     1      -1.066  53.092 -10.386  1.00  0.00    -0.032 C 
HETATM   20  C30 UNL     1      -1.771  54.459 -10.095  1.00  0.00     0.016 C 
ENDROOT
BRANCH   1  21
HETATM   21  C2  UNL     1      -3.449  52.259 -11.350  1.00  0.00    -0.010 C 
HETATM   22  C1  UNL     1      -4.220  53.497 -10.879  1.00  0.00     0.010 C 
BRANCH  21  23
HETATM   23  C3  UNL     1      -3.147  52.373 -12.870  1.00  0.00     0.031 C 
BRANCH  23  24
HETATM   24  C4  UNL     1      -2.537  51.143 -13.489  1.00  0.00    -0.027 C 
HETATM   25  C5  UNL     1      -1.352  51.143 -14.124  1.00  0.00     0.006 C 
BRANCH  25  26
HETATM   26  C6  UNL     1      -0.664  49.984 -14.801  1.00  0.00     0.068 C 
HETATM   27  C7  UNL     1       0.854  49.925 -14.598  1.00  0.00     0.050 C 
HETATM   28  C8  UNL     1      -1.000  49.981 -16.294  1.00  0.00     0.050 C 
BRANCH  26  29
HETATM   29  O1  UNL     1      -1.234  48.808 -14.218  1.00  0.00    -0.387 OA
HETATM   30  H15 UNL     1      -0.767  48.041 -14.584  1.00  0.00     0.211 HD
ENDBRANCH  26  29
ENDBRANCH  25  26
ENDBRANCH  23  24
ENDBRANCH  21  23
ENDBRANCH   1  21
BRANCH   9  31
HETATM   31  C18 UNL     1       2.330  56.496  -7.032  1.00  0.00     0.082 C 
HETATM   32  C19 UNL     1       0.875  56.741  -7.483  1.00  0.00     0.049 C 
HETATM   33  C20 UNL     1       3.063  57.852  -7.113  1.00  0.00     0.049 C 
BRANCH  31  34
HETATM   34  O2  UNL     1       2.283  56.129  -5.646  1.00  0.00    -0.388 OA
HETATM   35  H35 UNL     1       1.858  56.855  -5.160  1.00  0.00     0.210 HD
ENDBRANCH  31  34
ENDBRANCH   9  31
TORSDOF 7
ENDMDL
