MODEL 1
REMARK minimizedAffinity -9.47164917
REMARK CNNscore 0.674571633
REMARK CNNaffinity 6.75751495
REMARK  8 active torsions:
REMARK  status: ('A' for Active; 'I' for Inactive)
REMARK    1  A    between atoms: C2_2  and  C30_35 
REMARK    2  A    between atoms: C3_3  and  C4_4 
REMARK    3  A    between atoms: C4_4  and  O1_5 
REMARK    4  A    between atoms: C4_4  and  C5_6 
REMARK    5  A    between atoms: C5_6  and  C6_7 
REMARK    6  A    between atoms: C6_7  and  C8_9 
REMARK    7  A    between atoms: C29_33  and  O5_34 
REMARK    8  A    between atoms: C30_35  and  O7_37 
ROOT
HETATM    1  C8  UNL     1      -6.216   7.192  14.653  1.00  0.00     0.006 C 
HETATM    2  C9  UNL     1      -5.877   8.435  15.513  1.00  0.00     0.085 C 
HETATM    3  C10 UNL     1      -4.464   8.776  15.087  1.00  0.00     0.140 C 
HETATM    4  O2  UNL     1      -3.848   9.750  15.507  1.00  0.00    -0.297 OA
HETATM    5  C11 UNL     1      -3.947   7.807  14.014  1.00  0.00     0.051 C 
HETATM    6  C12 UNL     1      -4.302   8.532  12.680  1.00  0.00     0.029 C 
HETATM    7  C13 UNL     1      -2.495   7.382  13.897  1.00  0.00    -0.024 C 
HETATM    8  C14 UNL     1      -2.178   6.282  13.161  1.00  0.00     0.003 C 
HETATM    9  C15 UNL     1      -3.314   5.383  12.683  1.00  0.00     0.157 C 
HETATM   10  O3  UNL     1      -3.108   4.486  11.863  1.00  0.00    -0.293 OA
HETATM   11  C16 UNL     1      -4.739   5.587  13.198  1.00  0.00     0.094 C 
HETATM   12  C17 UNL     1      -4.817   6.554  14.379  1.00  0.00    -0.015 C 
HETATM   13  C18 UNL     1      -4.288   5.811  15.643  1.00  0.00     0.018 C 
HETATM   14  C19 UNL     1      -0.729   5.888  12.794  1.00  0.00    -0.008 C 
HETATM   15  C20 UNL     1      -0.356   4.669  13.678  1.00  0.00     0.021 C 
HETATM   16  C21 UNL     1      -0.585   5.460  11.297  1.00  0.00     0.022 C 
HETATM   17  C22 UNL     1       0.793   5.720  10.710  1.00  0.00     0.080 C 
HETATM   18  C23 UNL     1       1.100   7.200  10.719  1.00  0.00     0.135 C 
HETATM   19  O4  UNL     1       1.783   7.694   9.820  1.00  0.00    -0.297 OA
HETATM   20  C24 UNL     1       0.547   8.036  11.887  1.00  0.00     0.018 C 
HETATM   21  C25 UNL     1      -0.679   8.792  11.354  1.00  0.00     0.023 C 
HETATM   22  C26 UNL     1       1.624   9.080  12.253  1.00  0.00     0.023 C 
HETATM   23  C27 UNL     1       0.293   7.058  13.090  1.00  0.00     0.016 C 
HETATM   24  C28 UNL     1      -0.030   7.718  14.434  1.00  0.00     0.043 C 
HETATM   25  C29 UNL     1      -1.452   8.251  14.553  1.00  0.00     0.149 C 
ENDROOT
BRANCH   1  26
HETATM   26  C6  UNL     1      -7.426   6.377  15.197  1.00  0.00    -0.011 C 
HETATM   27  C7  UNL     1      -7.423   4.871  14.908  1.00  0.00     0.010 C 
BRANCH  26  28
HETATM   28  C5  UNL     1      -8.775   7.034  14.799  1.00  0.00     0.040 C 
BRANCH  28  29
HETATM   29  C4  UNL     1      -9.460   6.385  13.582  1.00  0.00     0.142 C 
BRANCH  29  30
HETATM   30  C3  UNL     1     -10.527   7.297  13.029  1.00  0.00     0.018 C 
HETATM   31  C2  UNL     1     -11.849   7.379  13.298  1.00  0.00     0.010 C 
HETATM   32  C1  UNL     1     -12.586   6.519  14.287  1.00  0.00     0.055 C 
BRANCH  31  33
HETATM   33  C30 UNL     1     -12.690   8.387  12.596  1.00  0.00     0.171 C 
HETATM   34  O6  UNL     1     -13.909   8.386  12.550  1.00  0.00    -0.646 OA
BRANCH  33  35
HETATM   35  O7  UNL     1     -11.987   9.350  11.975  1.00  0.00    -0.773 OA
HETATM   36  H42 UNL     1     -12.684   9.902  11.561  1.00  0.00     0.167 HD
ENDBRANCH  33  35
ENDBRANCH  31  33
ENDBRANCH  29  30
BRANCH  29  37
HETATM   37  O1  UNL     1      -8.488   6.067  12.606  1.00  0.00    -0.392 OA
HETATM   38  H6  UNL     1      -8.877   5.379  12.035  1.00  0.00     0.210 HD
ENDBRANCH  29  37
ENDBRANCH  28  29
ENDBRANCH  26  28
ENDBRANCH   1  26
BRANCH  25  39
HETATM   39  O5  UNL     1      -1.724   8.307  15.952  1.00  0.00    -0.391 OA
HETATM   40  H41 UNL     1      -2.260   9.116  16.093  1.00  0.00     0.210 HD
ENDBRANCH  25  39
TORSDOF 8
ENDMDL
