MODEL 1
REMARK minimizedAffinity -8.40261936
REMARK CNNscore 0.682375252
REMARK CNNaffinity 5.35088873
REMARK  6 active torsions:
REMARK  status: ('A' for Active; 'I' for Inactive)
REMARK    1  A    between atoms: C4_4  and  O1_5 
REMARK    2  A    between atoms: C5_6  and  O2_7 
REMARK    3  A    between atoms: C8_11  and  C9_12 
REMARK    4  A    between atoms: C19_23  and  C20_24 
REMARK    5  A    between atoms: C25_31  and  O7_32 
REMARK    6  A    between atoms: C26_33  and  O8_34 
ROOT
HETATM    1  C1  UNL     1     -18.643  41.003 -18.525  1.00  0.00     0.040 C 
HETATM    2  C2  UNL     1     -19.774  41.537 -19.396  1.00  0.00     0.123 C 
HETATM    3  C3  UNL     1     -19.995  40.638 -20.610  1.00  0.00     0.069 C 
HETATM    4  C4  UNL     1     -21.097  41.226 -21.478  1.00  0.00     0.188 C 
HETATM    5  C5  UNL     1     -20.752  42.675 -21.907  1.00  0.00     0.240 C 
HETATM    6  O3  UNL     1     -19.639  42.671 -22.819  1.00  0.00    -0.341 OA
HETATM    7  C6  UNL     1     -19.186  44.009 -23.100  1.00  0.00     0.156 C 
HETATM    8  C7  UNL     1     -17.955  43.907 -24.006  1.00  0.00     0.056 C 
HETATM    9  C8  UNL     1     -17.310  45.271 -24.353  1.00  0.00     0.043 C 
HETATM   10  C10 UNL     1     -17.235  46.199 -23.134  1.00  0.00    -0.065 C 
HETATM   11  C11 UNL     1     -16.192  47.023 -22.928  1.00  0.00    -0.022 C 
HETATM   12  C12 UNL     1     -14.998  47.130 -23.824  1.00  0.00     0.035 C 
HETATM   13  C13 UNL     1     -15.147  46.404 -25.182  1.00  0.00     0.032 C 
HETATM   14  C14 UNL     1     -15.853  45.044 -24.942  1.00  0.00     0.013 C 
HETATM   15  C15 UNL     1     -15.821  44.122 -26.169  1.00  0.00     0.007 C 
HETATM   16  C16 UNL     1     -14.424  44.001 -26.755  1.00  0.00     0.013 C 
HETATM   17  C17 UNL     1     -13.814  45.360 -27.194  1.00  0.00    -0.003 C 
HETATM   18  C18 UNL     1     -14.607  45.892 -28.403  1.00  0.00     0.019 C 
HETATM   19  C19 UNL     1     -12.279  45.103 -27.493  1.00  0.00     0.030 C 
HETATM   20  C24 UNL     1     -11.503  45.838 -26.391  1.00  0.00     0.044 C 
HETATM   21  C25 UNL     1     -12.510  46.007 -25.252  1.00  0.00     0.154 C 
HETATM   22  C26 UNL     1     -13.816  46.370 -25.998  1.00  0.00     0.096 C 
HETATM   23  C27 UNL     1     -18.391  46.180 -22.154  1.00  0.00     0.069 C 
HETATM   24  C28 UNL     1     -18.836  44.761 -21.812  1.00  0.00     0.158 C 
HETATM   25  O9  UNL     1     -19.969  44.820 -20.937  1.00  0.00    -0.347 OA
HETATM   26  C29 UNL     1     -20.418  43.494 -20.611  1.00  0.00     0.325 C 
HETATM   27  O10 UNL     1     -19.420  42.856 -19.802  1.00  0.00    -0.351 OA
ENDROOT
BRANCH  19  28
HETATM   28  C20 UNL     1     -11.762  45.348 -28.882  1.00  0.00    -0.045 A 
HETATM   29  C21 UNL     1     -11.354  46.527 -29.351  1.00  0.00     0.087 A 
HETATM   30  C22 UNL     1     -10.987  46.343 -30.752  1.00  0.00     0.283 A 
HETATM   31  O5  UNL     1     -10.652  47.249 -31.498  1.00  0.00    -0.260 OA
HETATM   32  O6  UNL     1     -11.137  45.032 -31.079  1.00  0.00    -0.314 OA
HETATM   33  C23 UNL     1     -11.628  44.316 -29.941  1.00  0.00     0.213 A 
ENDBRANCH  19  28
BRANCH  22  34
HETATM   34  O8  UNL     1     -13.627  47.704 -26.524  1.00  0.00    -0.386 OA
HETATM   35  H34 UNL     1     -13.438  48.276 -25.757  1.00  0.00     0.210 HD
ENDBRANCH  22  34
BRANCH  21  36
HETATM   36  O7  UNL     1     -12.087  47.029 -24.360  1.00  0.00    -0.392 OA
HETATM   37  H33 UNL     1     -11.417  47.581 -24.802  1.00  0.00     0.210 HD
ENDBRANCH  21  36
BRANCH   9  38
HETATM   38  C9  UNL     1     -18.228  45.963 -25.387  1.00  0.00     0.245 C 
HETATM   39  O4  UNL     1     -18.983  46.903 -25.140  1.00  0.00    -0.306 OA
ENDBRANCH   9  38
BRANCH   5  40
HETATM   40  O2  UNL     1     -21.882  43.196 -22.613  1.00  0.00    -0.360 OA
HETATM   41  H9  UNL     1     -21.717  42.922 -23.533  1.00  0.00     0.213 HD
ENDBRANCH   5  40
BRANCH   4  42
HETATM   42  O1  UNL     1     -21.316  40.361 -22.601  1.00  0.00    -0.390 OA
HETATM   43  H8  UNL     1     -22.007  40.793 -23.140  1.00  0.00     0.210 HD
ENDBRANCH   4  42
TORSDOF 6
ENDMDL
