MODEL 1
REMARK minimizedAffinity -9.01457024
REMARK CNNscore 0.761209607
REMARK CNNaffinity 7.10971212
REMARK  13 active torsions:
REMARK  status: ('A' for Active; 'I' for Inactive)
REMARK    1  A    between atoms: O1_2  and  C2_3 
REMARK    2  A    between atoms: C2_3  and  C3_5 
REMARK    3  A    between atoms: C3_5  and  C4_6 
REMARK    4  A    between atoms: C3_5  and  N3_13 
REMARK    5  A    between atoms: C4_6  and  C5_7 
REMARK       I    between atoms: N3_13  and  C8_14 
REMARK    6  A    between atoms: C8_14  and  C9_16 
REMARK    7  A    between atoms: C9_16  and  C10_17 
REMARK    8  A    between atoms: C10_17  and  C11_18 
REMARK    9  A    between atoms: C11_18  and  O5_20 
REMARK   10  A    between atoms: O5_20  and  C12_21 
REMARK   11  A    between atoms: C12_21  and  C13_22 
REMARK   12  A    between atoms: C13_22  and  C14_24 
REMARK   13  A    between atoms: C14_24  and  O7_25 
ROOT
HETATM    1  C13 UNL     1      -1.129  11.290  14.630  1.00  0.00     0.185 C 
HETATM    2  O6  UNL     1      -1.738  12.222  14.087  1.00  0.00    -0.292 OA
ENDROOT
BRANCH   1   3
HETATM    3  C12 UNL     1      -0.061  11.572  15.677  1.00  0.00     0.260 C 
BRANCH   3   4
HETATM    4  O5  UNL     1      -0.595  11.538  17.003  1.00  0.00    -0.314 OA
BRANCH   4   5
HETATM    5  C11 UNL     1      -0.718  12.760  17.591  1.00  0.00     0.259 C 
HETATM    6  O4  UNL     1      -0.788  13.816  16.979  1.00  0.00    -0.265 OA
BRANCH   5   7
HETATM    7  C10 UNL     1      -0.729  12.616  19.092  1.00  0.00     0.120 C 
BRANCH   7   8
HETATM    8  C9  UNL     1      -0.189  11.253  19.506  1.00  0.00     0.112 C 
BRANCH   8   9
HETATM    9  C8  UNL     1       1.051  11.350  20.372  1.00  0.00     0.218 C 
HETATM   10  N3  UNL     1       1.509  10.113  20.778  1.00  0.00    -0.347 N 
HETATM   11  H10 UNL     1       0.847   9.344  20.734  1.00  0.00     0.163 HD
HETATM   12  O3  UNL     1       1.582  12.403  20.701  1.00  0.00    -0.274 OA
BRANCH  10  13
HETATM   13  C3  UNL     1       2.556  10.001  21.801  1.00  0.00     0.190 C 
BRANCH  13  14
HETATM   14  C2  UNL     1       2.423   8.736  22.669  1.00  0.00     0.281 C 
HETATM   15  O2  UNL     1       1.860   7.712  22.295  1.00  0.00    -0.263 OA
BRANCH  14  16
HETATM   16  O1  UNL     1       2.975   8.900  23.905  1.00  0.00    -0.325 OA
HETATM   17  C1  UNL     1       2.442   9.989  24.659  1.00  0.00     0.213 C 
ENDBRANCH  14  16
ENDBRANCH  13  14
BRANCH  13  18
HETATM   18  C4  UNL     1       3.960  10.054  21.173  1.00  0.00     0.093 C 
BRANCH  18  19
HETATM   19  C5  UNL     1       4.765  11.232  21.619  1.00  0.00     0.028 A 
HETATM   20  C6  UNL     1       4.785  11.946  22.797  1.00  0.00     0.114 A 
HETATM   21  N1  UNL     1       5.670  12.988  22.718  1.00  0.00    -0.360 N 
HETATM   22  C7  UNL     1       6.217  12.894  21.530  1.00  0.00     0.180 A 
ATOM     23  H1  UNL     1       5.863  13.689  23.433  1.00  0.00     0.166 HD
HETATM   24  N2  UNL     1       5.714  11.836  20.828  1.00  0.00    -0.354 N 
HETATM   25  H9  UNL     1       5.976  11.566  19.887  1.00  0.00     0.166 HD
ENDBRANCH  18  19
ENDBRANCH  13  18
ENDBRANCH  10  13
ENDBRANCH   8   9
ENDBRANCH   7   8
ENDBRANCH   5   7
ENDBRANCH   4   5
ENDBRANCH   3   4
ENDBRANCH   1   3
BRANCH   1  26
HETATM   26  C14 UNL     1      -1.445   9.840  14.199  1.00  0.00     0.128 C 
HETATM   27  C15 UNL     1      -0.296   8.852  14.501  1.00  0.00     0.047 C 
HETATM   28  C16 UNL     1      -0.944   7.451  14.602  1.00  0.00     0.009 C 
HETATM   29  C17 UNL     1      -2.399   7.667  14.188  1.00  0.00     0.002 C 
HETATM   30  C18 UNL     1      -3.465   6.633  14.585  1.00  0.00     0.003 C 
HETATM   31  C31 UNL     1      -2.707   9.104  14.729  1.00  0.00     0.005 C 
HETATM   32  C19 UNL     1      -3.114   5.184  14.197  1.00  0.00     0.010 C 
HETATM   33  C28 UNL     1      -4.828   7.099  13.983  1.00  0.00     0.072 C 
HETATM   34  C20 UNL     1      -4.024   4.593  13.124  1.00  0.00     0.035 C 
HETATM   35  C21 UNL     1      -5.501   4.771  13.400  1.00  0.00    -0.067 C 
HETATM   36  C22 UNL     1      -6.379   3.890  12.888  1.00  0.00     0.053 C 
HETATM   37  C26 UNL     1      -5.945   6.028  14.168  1.00  0.00    -0.009 C 
HETATM   38  C23 UNL     1      -7.843   4.088  13.008  1.00  0.00     0.149 C 
HETATM   39  O8  UNL     1      -8.596   3.168  12.698  1.00  0.00    -0.293 OA
HETATM   40  C24 UNL     1      -8.360   5.408  13.533  1.00  0.00     0.084 C 
HETATM   41  C25 UNL     1      -7.287   6.498  13.547  1.00  0.00     0.022 C 
HETATM   42  C27 UNL     1      -6.152   5.667  15.659  1.00  0.00     0.021 C 
HETATM   43  C29 UNL     1      -5.114   8.520  14.489  1.00  0.00     0.133 C 
HETATM   44  O9  UNL     1      -6.110   8.829  15.138  1.00  0.00    -0.297 OA
HETATM   45  C30 UNL     1      -4.052   9.561  14.142  1.00  0.00     0.091 C 
HETATM   46  C32 UNL     1      -2.815   9.134  16.278  1.00  0.00     0.019 C 
BRANCH  26  47
HETATM   47  O7  UNL     1      -1.564   9.894  12.753  1.00  0.00    -0.381 OA
HETATM   48  H17 UNL     1      -1.069  10.690  12.461  1.00  0.00     0.211 HD
ENDBRANCH  26  47
ENDBRANCH   1  26
TORSDOF 13
ENDMDL
