MODEL 1
REMARK minimizedAffinity -7.2691102
REMARK CNNscore 0.403119683
REMARK CNNaffinity 6.90606546
REMARK  10 active torsions:
REMARK  status: ('A' for Active; 'I' for Inactive)
REMARK    1  A    between atoms: C16_18  and  C17_19 
REMARK    2  A    between atoms: C26_30  and  C27_31 
REMARK    3  A    between atoms: C27_31  and  O1_33 
REMARK    4  A    between atoms: C30_35  and  C31_36 
REMARK    5  A    between atoms: C31_36  and  O3_38 
REMARK    6  A    between atoms: C37_44  and  O4_45 
REMARK    7  A    between atoms: C40_48  and  C41_49 
REMARK    8  A    between atoms: C40_48  and  C42_51 
REMARK    9  A    between atoms: C41_49  and  O5_50 
REMARK   10  A    between atoms: C42_51  and  O7_53 
ROOT
HETATM    1  C17 UNL     1       0.989  54.587  -7.736  1.00  0.00     0.013 A 
HETATM    2  C18 UNL     1       0.008  53.926  -8.530  1.00  0.00     0.053 A 
HETATM    3  N3  UNL     1      -0.113  52.593  -8.839  1.00  0.00    -0.357 N 
HETATM    4  C19 UNL     1      -1.247  52.326  -9.573  1.00  0.00     0.038 A 
HETATM    5  C20 UNL     1      -1.830  53.553  -9.846  1.00  0.00    -0.020 A 
HETATM    6  C21 UNL     1      -3.021  53.838 -10.705  1.00  0.00     0.072 C 
HETATM    7  C22 UNL     1      -4.162  52.822 -10.625  1.00  0.00     0.277 C 
HETATM    8  N4  UNL     1      -3.894  51.429 -10.985  1.00  0.00     0.096 N 
HETATM    9  C23 UNL     1      -3.310  51.234 -12.324  1.00  0.00     0.277 C 
HETATM   10  C24 UNL     1      -2.277  50.096 -12.286  1.00  0.00     0.016 C 
HETATM   11  C25 UNL     1      -2.943  48.840 -11.704  1.00  0.00     0.015 C 
HETATM   12  C26 UNL     1      -3.482  49.137 -10.285  1.00  0.00     0.049 C 
HETATM   13  C29 UNL     1      -3.176  50.644  -9.945  1.00  0.00     0.253 C 
HETATM   14  C30 UNL     1      -1.622  50.881  -9.953  1.00  0.00     0.122 C 
HETATM   15  C33 UNL     1      -1.104  50.522 -11.375  1.00  0.00     0.035 C 
HETATM   16  C34 UNL     1      -1.047  54.558  -9.176  1.00  0.00    -0.000 A 
HETATM   17  C35 UNL     1      -1.154  55.955  -9.070  1.00  0.00     0.017 A 
HETATM   18  C36 UNL     1      -0.234  56.654  -8.292  1.00  0.00     0.038 A 
HETATM   19  C37 UNL     1       0.798  55.981  -7.636  1.00  0.00     0.075 A 
HETATM   20  H19 UNL     1       0.554  51.894  -8.540  1.00  0.00     0.166 HD
ENDROOT
BRANCH   1  21
HETATM   21  C16 UNL     1       2.122  53.781  -7.083  1.00  0.00     0.075 C 
HETATM   22  C9  UNL     1       2.678  54.211  -5.748  1.00  0.00     0.025 A 
HETATM   23  C8  UNL     1       3.921  54.081  -5.130  1.00  0.00    -0.020 A 
HETATM   24  N2  UNL     1       1.833  54.796  -4.829  1.00  0.00    -0.358 N 
HETATM   25  C7  UNL     1       5.191  53.457  -5.648  1.00  0.00     0.079 C 
HETATM   26  C15 UNL     1       3.769  54.590  -3.784  1.00  0.00    -0.001 A 
HETATM   27  C6  UNL     1       6.014  54.130  -6.797  1.00  0.00     0.248 C 
HETATM   28  N1  UNL     1       6.064  55.604  -6.878  1.00  0.00     0.094 N 
HETATM   29  C40 UNL     1       5.726  53.577  -8.234  1.00  0.00     0.107 C 
HETATM   30  C4  UNL     1       4.824  56.226  -7.340  1.00  0.00     0.306 C 
HETATM   31  C5  UNL     1       6.569  56.257  -5.676  1.00  0.00     0.310 C 
HETATM   32  C3  UNL     1       4.218  55.572  -8.577  1.00  0.00    -0.051 C 
HETATM   33  C2  UNL     1       3.700  56.350  -9.552  1.00  0.00    -0.026 C 
HETATM   34  C39 UNL     1       4.312  54.055  -8.683  1.00  0.00     0.039 C 
HETATM   35  C1  UNL     1       3.035  55.923 -10.822  1.00  0.00     0.036 C 
HETATM   36  C38 UNL     1       3.143  53.222  -8.090  1.00  0.00     0.026 C 
HETATM   37  C10 UNL     1       2.459  55.027  -3.636  1.00  0.00     0.043 A 
HETATM   38  C14 UNL     1       4.633  54.708  -2.672  1.00  0.00     0.014 A 
HETATM   39  C11 UNL     1       1.963  55.584  -2.450  1.00  0.00     0.030 A 
HETATM   40  C12 UNL     1       2.843  55.693  -1.372  1.00  0.00     0.002 A 
HETATM   41  C13 UNL     1       4.161  55.262  -1.478  1.00  0.00     0.001 A 
HETATM   42  H13 UNL     1       0.874  55.045  -5.026  1.00  0.00     0.166 HD
BRANCH  29  43
HETATM   43  C41 UNL     1       6.836  54.083  -9.222  1.00  0.00     0.186 C 
BRANCH  43  44
HETATM   44  O5  UNL     1       7.146  55.472  -9.072  1.00  0.00    -0.399 OA
HETATM   45  H49 UNL     1       6.339  55.992  -9.253  1.00  0.00     0.209 HD
ENDBRANCH  43  44
ENDBRANCH  29  43
BRANCH  29  46
HETATM   46  C42 UNL     1       5.937  52.059  -8.248  1.00  0.00     0.272 C 
HETATM   47  O6  UNL     1       5.104  51.238  -7.880  1.00  0.00    -0.264 OA
BRANCH  46  48
HETATM   48  O7  UNL     1       7.197  51.725  -8.653  1.00  0.00    -0.326 OA
HETATM   49  C43 UNL     1       7.790  50.635  -7.946  1.00  0.00     0.213 C 
ENDBRANCH  46  48
ENDBRANCH  29  46
ENDBRANCH   1  21
BRANCH  19  50
HETATM   50  O4  UNL     1       1.633  56.725  -6.852  1.00  0.00    -0.360 OA
HETATM   51  H43 UNL     1       1.571  57.660  -7.108  1.00  0.00     0.217 HD
ENDBRANCH  19  50
BRANCH  14  52
HETATM   52  C31 UNL     1      -1.011  49.956  -8.857  1.00  0.00     0.275 C 
HETATM   53  O2  UNL     1      -1.393  49.894  -7.697  1.00  0.00    -0.264 OA
BRANCH  52  54
HETATM   54  O3  UNL     1       0.102  49.304  -9.318  1.00  0.00    -0.326 OA
HETATM   55  C32 UNL     1       0.727  48.452  -8.358  1.00  0.00     0.213 C 
ENDBRANCH  52  54
ENDBRANCH  14  52
BRANCH  12  56
HETATM   56  C27 UNL     1      -4.976  48.774 -10.097  1.00  0.00     0.120 C 
HETATM   57  C28 UNL     1      -5.688  48.528 -11.422  1.00  0.00     0.040 C 
BRANCH  56  58
HETATM   58  O1  UNL     1      -5.681  49.804  -9.414  1.00  0.00    -0.396 OA
HETATM   59  H34 UNL     1      -5.133  50.026  -8.630  1.00  0.00     0.210 HD
ENDBRANCH  56  58
ENDBRANCH  12  56
TORSDOF 10
ENDMDL
