MODEL 1
REMARK minimizedAffinity -10.0937862
REMARK  5 active torsions:
REMARK  status: ('A' for Active; 'I' for Inactive)
REMARK    1  A    between atoms: C4_4  and  C5_5 
REMARK    2  A    between atoms: N1_23  and  C22_24 
REMARK    3  A    between atoms: C22_24  and  C23_25 
REMARK    4  A    between atoms: C23_25  and  O2_26 
REMARK    5  A    between atoms: C26_29  and  O3_31 
ROOT
HETATM    1  C5  UNL     1      -0.256  50.720 -20.596  1.00  0.00     0.146 C 
HETATM    2  C6  UNL     1      -1.449  51.221 -19.803  1.00  0.00     0.043 C 
HETATM    3  C7  UNL     1      -2.459  50.091 -19.956  1.00  0.00     0.019 C 
HETATM    4  C8  UNL     1      -2.209  49.037 -18.868  1.00  0.00     0.013 C 
HETATM    5  C9  UNL     1      -2.193  49.609 -21.395  1.00  0.00     0.069 C 
HETATM    6  C10 UNL     1      -2.394  48.096 -21.670  1.00  0.00     0.040 C 
HETATM    7  C11 UNL     1      -3.090  48.010 -23.036  1.00  0.00     0.012 C 
HETATM    8  C12 UNL     1      -3.989  49.254 -23.070  1.00  0.00    -0.037 C 
HETATM    9  C13 UNL     1      -5.178  49.036 -22.088  1.00  0.00     0.015 C 
HETATM   10  C14 UNL     1      -4.628  49.596 -24.447  1.00  0.00     0.021 C 
HETATM   11  C15 UNL     1      -3.896  50.269 -25.630  1.00  0.00     0.052 C 
HETATM   12  C16 UNL     1      -2.970  51.460 -25.533  1.00  0.00    -0.038 C 
HETATM   13  C17 UNL     1      -2.591  52.398 -24.648  1.00  0.00     0.015 C 
HETATM   14  C18 UNL     1      -2.931  52.758 -23.237  1.00  0.00     0.045 C 
HETATM   15  C19 UNL     1      -3.628  51.687 -22.400  1.00  0.00     0.013 C 
HETATM   16  C20 UNL     1      -2.981  50.303 -22.560  1.00  0.00     0.029 C 
HETATM   17  C21 UNL     1      -1.405  53.064 -25.262  1.00  0.00     0.250 C 
HETATM   18  O1  UNL     1      -0.839  54.045 -24.817  1.00  0.00    -0.268 OA
HETATM   19  N1  UNL     1      -1.077  52.361 -26.405  1.00  0.00    -0.338 N 
HETATM   20  C24 UNL     1      -2.129  51.477 -26.775  1.00  0.00     0.120 C 
HETATM   21  C25 UNL     1      -1.797  50.008 -26.921  1.00  0.00     0.068 C 
HETATM   22  C26 UNL     1      -3.140  49.309 -26.624  1.00  0.00     0.064 C 
HETATM   23  C27 UNL     1      -3.952  49.096 -27.910  1.00  0.00     0.046 C 
HETATM   24  O4  UNL     1      -0.785  49.883 -21.634  1.00  0.00    -0.370 OA
ENDROOT
BRANCH   1  25
HETATM   25  C4  UNL     1       0.538  51.817 -21.236  1.00  0.00     0.007 C 
HETATM   26  C2  UNL     1       0.753  53.061 -20.764  1.00  0.00    -0.089 C 
HETATM   27  C1  UNL     1       0.183  53.602 -19.482  1.00  0.00     0.042 C 
HETATM   28  C3  UNL     1       1.610  54.033 -21.531  1.00  0.00     0.042 C 
ENDBRANCH   1  25
BRANCH  22  29
HETATM   29  O3  UNL     1      -2.898  48.020 -26.079  1.00  0.00    -0.389 OA
HETATM   30  H41 UNL     1      -2.290  47.543 -26.671  1.00  0.00     0.210 HD
ENDBRANCH  22  29
BRANCH  19  31
HETATM   31  C22 UNL     1      -0.086  52.832 -27.353  1.00  0.00     0.152 C 
BRANCH  31  32
HETATM   32  C23 UNL     1      -0.463  54.157 -28.016  1.00  0.00     0.184 C 
BRANCH  32  33
HETATM   33  O2  UNL     1      -1.822  54.135 -28.438  1.00  0.00    -0.399 OA
HETATM   34  H34 UNL     1      -1.877  53.516 -29.187  1.00  0.00     0.209 HD
ENDBRANCH  32  33
ENDBRANCH  31  32
ENDBRANCH  19  31
TORSDOF 5
ENDMDL
