MODEL 1
REMARK minimizedAffinity -8.44340706
REMARK CNNscore 0.712031543
REMARK CNNaffinity 7.29536676
REMARK  12 active torsions:
REMARK  status: ('A' for Active; 'I' for Inactive)
REMARK    1  A    between atoms: C5_5  and  C6_6 
REMARK    2  A    between atoms: C6_6  and  C8_8 
REMARK    3  A    between atoms: C8_8  and  O1_9 
REMARK    4  A    between atoms: C13_15  and  O3_17 
REMARK    5  A    between atoms: C18_21  and  O4_23 
REMARK    6  A    between atoms: O4_23  and  C20_24 
REMARK    7  A    between atoms: C20_24  and  C21_26 
REMARK    8  A    between atoms: C21_26  and  C22_27 
REMARK    9  A    between atoms: C21_26  and  O6_29 
REMARK   10  A    between atoms: O6_29  and  C24_30 
REMARK   11  A    between atoms: C24_30  and  C25_32 
REMARK   12  A    between atoms: C25_32  and  C26_33 
ROOT
HETATM    1  C1  UNL     1      -7.214   1.872  13.078  1.00  0.00     0.015 C 
HETATM    2  C2  UNL     1      -6.691   2.953  12.472  1.00  0.00    -0.077 C 
HETATM    3  C3  UNL     1      -6.397   2.953  10.993  1.00  0.00     0.034 C 
HETATM    4  C4  UNL     1      -5.203   3.841  10.633  1.00  0.00     0.010 C 
HETATM    5  C5  UNL     1      -4.161   3.960  11.762  1.00  0.00    -0.001 C 
HETATM    6  C9  UNL     1      -4.832   4.684  12.990  1.00  0.00     0.037 C 
HETATM    7  C10 UNL     1      -6.315   4.213  13.233  1.00  0.00     0.090 C 
HETATM    8  C11 UNL     1      -7.413   5.263  12.981  1.00  0.00     0.138 C 
HETATM    9  O2  UNL     1      -7.808   5.538  11.842  1.00  0.00    -0.297 OA
HETATM   10  C12 UNL     1      -8.083   5.931  14.184  1.00  0.00     0.119 C 
HETATM   11  C13 UNL     1      -7.189   6.286  15.396  1.00  0.00     0.087 C 
HETATM   12  C14 UNL     1      -7.939   7.295  16.287  1.00  0.00     0.049 C 
HETATM   13  C15 UNL     1      -5.789   6.891  15.012  1.00  0.00     0.156 C 
HETATM   14  C16 UNL     1      -4.588   6.244  15.720  1.00  0.00     0.038 C 
HETATM   15  C17 UNL     1      -3.230   6.501  15.061  1.00  0.00     0.043 C 
HETATM   16  C18 UNL     1      -3.295   6.819  13.545  1.00  0.00     0.093 C 
HETATM   17  C19 UNL     1      -3.248   8.367  13.419  1.00  0.00     0.049 C 
HETATM   18  C28 UNL     1      -4.623   6.249  12.952  1.00  0.00     0.162 C 
HETATM   19  O8  UNL     1      -5.686   6.961  13.590  1.00  0.00    -0.374 OA
ENDROOT
BRANCH  16  20
HETATM   20  O4  UNL     1      -2.082   6.256  12.975  1.00  0.00    -0.306 OA
BRANCH  20  21
HETATM   21  C20 UNL     1      -0.983   7.046  12.798  1.00  0.00     0.289 C 
HETATM   22  O5  UNL     1      -0.412   7.667  13.685  1.00  0.00    -0.262 OA
BRANCH  21  23
HETATM   23  C21 UNL     1      -0.540   7.027  11.328  1.00  0.00     0.231 C 
BRANCH  23  24
HETATM   24  C22 UNL     1      -0.246   5.593  10.865  1.00  0.00     0.038 C 
HETATM   25  C23 UNL     1       0.888   4.921  11.631  1.00  0.00     0.008 C 
ENDBRANCH  23  24
BRANCH  23  26
HETATM   26  O6  UNL     1       0.639   7.815  11.104  1.00  0.00    -0.306 OA
BRANCH  26  27
HETATM   27  C24 UNL     1       0.799   8.237   9.820  1.00  0.00     0.259 C 
HETATM   28  O7  UNL     1       0.012   8.953   9.217  1.00  0.00    -0.265 OA
BRANCH  27  29
HETATM   29  C25 UNL     1       2.068   7.683   9.230  1.00  0.00     0.111 C 
BRANCH  29  30
HETATM   30  C26 UNL     1       2.121   7.911   7.724  1.00  0.00     0.005 C 
HETATM   31  C27 UNL     1       2.155   6.595   6.964  1.00  0.00     0.005 C 
ENDBRANCH  29  30
ENDBRANCH  27  29
ENDBRANCH  26  27
ENDBRANCH  23  26
ENDBRANCH  21  23
ENDBRANCH  20  21
ENDBRANCH  16  20
BRANCH   5  32
HETATM   32  C6  UNL     1      -3.488   2.595  12.158  1.00  0.00     0.010 C 
HETATM   33  C7  UNL     1      -4.170   1.377  11.514  1.00  0.00     0.012 C 
BRANCH  32  34
HETATM   34  C8  UNL     1      -1.993   2.571  11.780  1.00  0.00     0.168 C 
BRANCH  34  35
HETATM   35  O1  UNL     1      -1.819   2.433  10.373  1.00  0.00    -0.400 OA
HETATM   36  H14 UNL     1      -2.330   1.656  10.088  1.00  0.00     0.209 HD
ENDBRANCH  34  35
ENDBRANCH  32  34
ENDBRANCH   5  32
BRANCH  11  37
HETATM   37  O3  UNL     1      -7.038   5.107  16.206  1.00  0.00    -0.387 OA
HETATM   38  H22 UNL     1      -7.913   4.855  16.551  1.00  0.00     0.210 HD
ENDBRANCH  11  37
TORSDOF 12
ENDMDL
