MODEL 1
REMARK minimizedAffinity -7.18560028
REMARK CNNscore 0.550185919
REMARK CNNaffinity 5.8894062
REMARK  4 active torsions:
REMARK  status: ('A' for Active; 'I' for Inactive)
REMARK    1  A    between atoms: C4_4  and  C5_5 
REMARK    2  A    between atoms: C5_5  and  C6_7 
REMARK    3  A    between atoms: C6_7  and  C7_8 
REMARK    4  A    between atoms: C7_8  and  C9_10 
ROOT
HETATM    1  C9  UNL     1     -11.078  46.245 -27.936  1.00  0.00    -0.001 C 
HETATM    2  C10 UNL     1     -11.007  44.834 -28.594  1.00  0.00     0.007 C 
HETATM    3  C11 UNL     1     -12.305  44.084 -28.223  1.00  0.00     0.015 C 
HETATM    4  C12 UNL     1     -13.223  45.169 -27.634  1.00  0.00    -0.013 C 
HETATM    5  C13 UNL     1     -13.880  45.892 -28.867  1.00  0.00     0.021 C 
HETATM    6  C14 UNL     1     -14.397  44.741 -26.751  1.00  0.00    -0.070 C 
HETATM    7  C15 UNL     1     -15.172  43.696 -27.097  1.00  0.00    -0.022 C 
HETATM    8  C16 UNL     1     -16.531  43.447 -26.522  1.00  0.00     0.034 C 
HETATM    9  C17 UNL     1     -17.147  44.760 -25.989  1.00  0.00     0.013 C 
HETATM   10  C18 UNL     1     -18.670  44.635 -25.622  1.00  0.00     0.018 C 
HETATM   11  C19 UNL     1     -19.487  44.442 -26.928  1.00  0.00     0.023 C 
HETATM   12  C20 UNL     1     -19.037  43.469 -24.690  1.00  0.00     0.023 C 
HETATM   13  C21 UNL     1     -19.141  45.937 -24.957  1.00  0.00     0.135 C 
HETATM   14  O2  UNL     1     -20.234  46.451 -25.208  1.00  0.00    -0.297 OA
HETATM   15  C22 UNL     1     -18.258  46.536 -23.889  1.00  0.00     0.080 C 
HETATM   16  C23 UNL     1     -16.845  46.721 -24.418  1.00  0.00     0.017 C 
HETATM   17  C24 UNL     1     -16.193  45.412 -24.925  1.00  0.00    -0.031 C 
HETATM   18  C25 UNL     1     -15.946  44.485 -23.700  1.00  0.00     0.016 C 
HETATM   19  C26 UNL     1     -14.750  45.666 -25.574  1.00  0.00     0.024 C 
HETATM   20  C27 UNL     1     -14.370  47.130 -25.898  1.00  0.00     0.010 C 
HETATM   21  C28 UNL     1     -12.901  47.334 -26.367  1.00  0.00     0.011 C 
HETATM   22  C29 UNL     1     -12.186  46.049 -26.848  1.00  0.00    -0.029 C 
HETATM   23  C30 UNL     1     -11.527  45.323 -25.633  1.00  0.00     0.016 C 
ENDROOT
BRANCH   1  24
HETATM   24  C7  UNL     1      -9.674  46.781 -27.532  1.00  0.00    -0.007 C 
HETATM   25  C8  UNL     1      -9.743  48.106 -26.768  1.00  0.00     0.011 C 
BRANCH  24  26
HETATM   26  C6  UNL     1      -8.711  46.921 -28.735  1.00  0.00     0.087 C 
BRANCH  26  27
HETATM   27  C5  UNL     1      -7.329  46.329 -28.505  1.00  0.00     0.149 C 
HETATM   28  O1  UNL     1      -7.072  45.156 -28.769  1.00  0.00    -0.293 OA
BRANCH  27  29
HETATM   29  C4  UNL     1      -6.294  47.236 -27.922  1.00  0.00     0.052 C 
HETATM   30  C2  UNL     1      -5.331  47.860 -28.623  1.00  0.00    -0.084 C 
HETATM   31  C1  UNL     1      -5.173  47.796 -30.117  1.00  0.00     0.043 C 
HETATM   32  C3  UNL     1      -4.300  48.703 -27.919  1.00  0.00     0.043 C 
ENDBRANCH  27  29
ENDBRANCH  26  27
ENDBRANCH  24  26
ENDBRANCH   1  24
TORSDOF 4
ENDMDL
