MODEL 1
REMARK minimizedAffinity -7.83119869
REMARK CNNscore 0.624168217
REMARK CNNaffinity 6.82856512
REMARK  11 active torsions:
REMARK  status: ('A' for Active; 'I' for Inactive)
REMARK    1  A    between atoms: C4_4  and  C5_5 
REMARK    2  A    between atoms: C5_5  and  O2_7 
REMARK    3  A    between atoms: O2_7  and  C6_8 
REMARK    4  A    between atoms: C6_8  and  C7_9 
REMARK    5  A    between atoms: C7_9  and  N1_10 
REMARK    6  A    between atoms: C14_17  and  O3_18 
REMARK    7  A    between atoms: C20_24  and  O4_25 
REMARK    8  A    between atoms: O4_25  and  C21_26 
REMARK    9  A    between atoms: C21_26  and  C22_28 
REMARK   10  A    between atoms: C22_28  and  C23_29 
REMARK   11  A    between atoms: C23_29  and  O6_32 
ROOT
HETATM    1  C1  UNL     1       1.486   6.849   8.329  1.00  0.00     0.015 C 
HETATM    2  C2  UNL     1       1.740   7.129   9.817  1.00  0.00     0.017 C 
HETATM    3  C3  UNL     1       2.876   6.250  10.313  1.00  0.00    -0.070 C 
HETATM    4  C4  UNL     1       4.161   6.629  10.496  1.00  0.00     0.085 C 
HETATM    5  C10 UNL     1       2.491   4.828  10.656  1.00  0.00     0.035 C 
HETATM    6  C11 UNL     1       1.099   4.697  11.287  1.00  0.00     0.010 C 
HETATM    7  C12 UNL     1       0.568   6.034  11.857  1.00  0.00     0.001 C 
HETATM    8  C13 UNL     1       0.419   6.982  10.645  1.00  0.00     0.027 C 
HETATM    9  C14 UNL     1      -0.085   8.349  11.108  1.00  0.00     0.123 C 
HETATM   10  C15 UNL     1      -1.404   8.225  11.854  1.00  0.00     0.038 C 
HETATM   11  C16 UNL     1      -1.340   7.321  13.106  1.00  0.00     0.007 C 
HETATM   12  C17 UNL     1      -2.753   7.286  13.836  1.00  0.00    -0.016 C 
HETATM   13  C18 UNL     1      -2.631   6.837  15.316  1.00  0.00     0.018 C 
HETATM   14  C19 UNL     1      -3.390   8.704  13.918  1.00  0.00     0.018 C 
HETATM   15  C20 UNL     1      -3.728   6.369  13.042  1.00  0.00     0.140 C 
HETATM   16  C26 UNL     1      -3.154   4.982  12.758  1.00  0.00     0.034 C 
HETATM   17  C27 UNL     1      -1.806   5.036  12.043  1.00  0.00     0.012 C 
HETATM   18  C28 UNL     1      -0.734   5.898  12.755  1.00  0.00    -0.035 C 
HETATM   19  C29 UNL     1      -0.280   5.182  14.061  1.00  0.00     0.016 C 
ENDROOT
BRANCH   4  20
HETATM   20  C5  UNL     1       4.868   7.913  10.251  1.00  0.00     0.283 C 
HETATM   21  O1  UNL     1       4.353   8.807   9.593  1.00  0.00    -0.260 OA
BRANCH  20  22
HETATM   22  O2  UNL     1       6.070   7.967  10.855  1.00  0.00    -0.316 OA
BRANCH  22  23
HETATM   23  C6  UNL     1       6.239   7.143  12.019  1.00  0.00     0.209 C 
BRANCH  23  24
HETATM   24  C7  UNL     1       6.105   7.935  13.337  1.00  0.00     0.298 C 
BRANCH  24  25
HETATM   25  N1  UNL     1       7.156   7.679  14.344  1.00  0.00     0.082 N 
HETATM   26  C8  UNL     1       8.477   7.973  13.787  1.00  0.00     0.309 C 
HETATM   27  C9  UNL     1       6.943   8.444  15.576  1.00  0.00     0.309 C 
ENDBRANCH  24  25
ENDBRANCH  23  24
ENDBRANCH  22  23
ENDBRANCH  20  22
ENDBRANCH   4  20
BRANCH   9  28
HETATM   28  O3  UNL     1      -0.292   9.214   9.988  1.00  0.00    -0.395 OA
HETATM   29  H23 UNL     1      -0.958   8.807   9.410  1.00  0.00     0.210 HD
ENDBRANCH   9  28
BRANCH  15  30
HETATM   30  O4  UNL     1      -4.951   6.205  13.793  1.00  0.00    -0.315 OA
BRANCH  30  31
HETATM   31  C21 UNL     1      -5.909   5.410  13.237  1.00  0.00     0.262 C 
HETATM   32  O5  UNL     1      -5.728   4.272  12.830  1.00  0.00    -0.265 OA
BRANCH  31  33
HETATM   33  C22 UNL     1      -7.234   6.132  13.235  1.00  0.00     0.148 C 
BRANCH  33  34
HETATM   34  C23 UNL     1      -7.867   6.322  14.622  1.00  0.00     0.059 C 
HETATM   35  C24 UNL     1      -7.475   5.206  15.594  1.00  0.00     0.045 C 
HETATM   36  C25 UNL     1      -7.583   7.696  15.233  1.00  0.00     0.045 C 
BRANCH  34  37
HETATM   37  O6  UNL     1      -9.293   6.218  14.451  1.00  0.00    -0.390 OA
HETATM   38  H42 UNL     1      -9.600   7.006  13.968  1.00  0.00     0.210 HD
ENDBRANCH  34  37
ENDBRANCH  33  34
ENDBRANCH  31  33
ENDBRANCH  30  31
ENDBRANCH  15  30
TORSDOF 11
ENDMDL
