MODEL 1
REMARK minimizedAffinity -8.52655602
REMARK CNNscore 0.334201276
REMARK CNNaffinity 6.80014849
REMARK  9 active torsions:
REMARK  status: ('A' for Active; 'I' for Inactive)
REMARK    1  A    between atoms: C7_8  and  O1_9 
REMARK    2  A    between atoms: O1_9  and  C8_10 
REMARK    3  A    between atoms: C8_10  and  C9_11 
REMARK       I    between atoms: C9_11  and  N1_13 
REMARK    4  A    between atoms: N1_13  and  N2_14 
REMARK    5  A    between atoms: C10_16  and  C11_17 
REMARK    6  A    between atoms: C14_20  and  O3_21 
REMARK    7  A    between atoms: C16_23  and  O4_24 
REMARK    8  A    between atoms: C25_33  and  C26_34 
REMARK    9  A    between atoms: C32_42  and  O7_43 
ROOT
HETATM    1  C11 UNL     1      -2.060  51.129 -11.884  1.00  0.00     0.028 C 
HETATM    2  C12 UNL     1      -3.410  51.872 -12.114  1.00  0.00     0.021 C 
HETATM    3  C13 UNL     1      -4.194  52.099 -10.811  1.00  0.00     0.033 C 
HETATM    4  C14 UNL     1      -4.381  50.840  -9.963  1.00  0.00     0.121 C 
HETATM    5  C15 UNL     1      -3.118  49.969  -9.861  1.00  0.00     0.070 C 
HETATM    6  C16 UNL     1      -2.385  49.763 -11.206  1.00  0.00     0.073 C 
HETATM    7  C17 UNL     1      -1.146  48.872 -11.026  1.00  0.00     0.039 C 
HETATM    8  C18 UNL     1      -0.353  48.678 -12.321  1.00  0.00     0.011 C 
HETATM    9  C19 UNL     1      -0.059  49.981 -13.101  1.00  0.00     0.026 C 
HETATM   10  C20 UNL     1      -1.309  50.896 -13.244  1.00  0.00     0.009 C 
HETATM   11  C21 UNL     1      -0.979  52.212 -13.986  1.00  0.00     0.007 C 
HETATM   12  C22 UNL     1       0.413  52.256 -14.608  1.00  0.00     0.013 C 
HETATM   13  C23 UNL     1       0.821  50.984 -15.377  1.00  0.00    -0.005 C 
HETATM   14  C24 UNL     1       2.304  51.170 -15.797  1.00  0.00     0.019 C 
HETATM   15  C25 UNL     1      -0.077  50.715 -16.635  1.00  0.00     0.028 C 
HETATM   16  C30 UNL     1       0.007  49.191 -16.787  1.00  0.00     0.013 C 
HETATM   17  C31 UNL     1      -0.180  48.701 -15.362  1.00  0.00     0.040 C 
HETATM   18  C32 UNL     1       0.616  49.693 -14.483  1.00  0.00     0.070 C 
ENDROOT
BRANCH   1  19
HETATM   19  C10 UNL     1      -1.208  52.051 -10.990  1.00  0.00     0.093 C 
HETATM   20  N2  UNL     1      -0.938  53.280 -11.298  1.00  0.00    -0.312 N 
ATOM     21  H2  UNL     1      -1.336  53.723 -12.126  1.00  0.00     0.185 HD
BRANCH  20  22
HETATM   22  N1  UNL     1      -0.090  53.957 -10.457  1.00  0.00    -0.269 N 
HETATM   23  C9  UNL     1       1.289  54.022 -10.697  1.00  0.00     0.260 C 
HETATM   24  O2  UNL     1       1.890  53.310 -11.500  1.00  0.00    -0.269 OA
HETATM   25  H9  UNL     1      -0.520  54.796 -10.072  1.00  0.00     0.190 HD
BRANCH  23  26
HETATM   26  C8  UNL     1       1.979  55.079  -9.824  1.00  0.00     0.280 C 
BRANCH  26  27
HETATM   27  O1  UNL     1       3.385  54.947  -9.709  1.00  0.00    -0.342 OA
BRANCH  27  28
HETATM   28  C7  UNL     1       4.041  55.694  -8.770  1.00  0.00     0.075 A 
HETATM   29  C2  UNL     1       5.410  55.404  -8.609  1.00  0.00    -0.027 A 
HETATM   30  C1  UNL     1       6.077  54.348  -9.449  1.00  0.00     0.051 C 
HETATM   31  C3  UNL     1       6.167  56.127  -7.673  1.00  0.00     0.033 A 
HETATM   32  C4  UNL     1       5.565  57.115  -6.900  1.00  0.00     0.034 A 
HETATM   33 CL1  UNL     1       6.503  58.004  -5.764  1.00  0.00    -0.084 Cl
HETATM   34  C5  UNL     1       4.208  57.389  -7.043  1.00  0.00     0.026 A 
HETATM   35  C6  UNL     1       3.447  56.677  -7.973  1.00  0.00     0.039 A 
ENDBRANCH  27  28
ENDBRANCH  26  27
ENDBRANCH  23  26
ENDBRANCH  20  22
ENDBRANCH   1  19
BRANCH   6  36
HETATM   36  O4  UNL     1      -3.297  49.024 -12.045  1.00  0.00    -0.389 OA
HETATM   37  H19 UNL     1      -2.838  48.661 -12.816  1.00  0.00     0.210 HD
ENDBRANCH   6  36
BRANCH   4  38
HETATM   38  O3  UNL     1      -5.464  50.071 -10.482  1.00  0.00    -0.395 OA
HETATM   39  H16 UNL     1      -6.257  50.631 -10.476  1.00  0.00     0.210 HD
ENDBRANCH   4  38
BRANCH  18  40
HETATM   40  O7  UNL     1       1.895  49.098 -14.221  1.00  0.00    -0.389 OA
HETATM   41  H41 UNL     1       1.764  48.215 -13.839  1.00  0.00     0.210 HD
ENDBRANCH  18  40
BRANCH  15  42
HETATM   42  C26 UNL     1       0.215  51.477 -17.901  1.00  0.00    -0.045 A 
HETATM   43  C27 UNL     1       0.847  52.642 -18.037  1.00  0.00     0.087 A 
HETATM   44  C28 UNL     1       0.930  52.933 -19.468  1.00  0.00     0.283 A 
HETATM   45  O5  UNL     1       1.437  53.931 -19.946  1.00  0.00    -0.260 OA
HETATM   46  O6  UNL     1       0.363  51.913 -20.160  1.00  0.00    -0.314 OA
HETATM   47  C29 UNL     1      -0.143  50.946 -19.240  1.00  0.00     0.213 A 
ENDBRANCH  15  42
TORSDOF 9
ENDMDL
