MODEL 1
REMARK minimizedAffinity -10.0505781
REMARK  0 active torsions:
REMARK  status: ('A' for Active; 'I' for Inactive)
ROOT
HETATM    1  C1  UNL     1       4.485   6.294  10.801  1.00  0.00     0.023 C 
HETATM    2  C2  UNL     1       3.566   7.536  10.779  1.00  0.00     0.017 C 
HETATM    3  C3  UNL     1       4.440   8.702  11.313  1.00  0.00     0.023 C 
HETATM    4  C4  UNL     1       3.162   7.819   9.325  1.00  0.00     0.135 C 
HETATM    5  O1  UNL     1       3.743   8.659   8.636  1.00  0.00    -0.297 OA
HETATM    6  C5  UNL     1       2.084   6.948   8.714  1.00  0.00     0.080 C 
HETATM    7  C6  UNL     1       0.857   6.817   9.611  1.00  0.00     0.017 C 
HETATM    8  C7  UNL     1       1.160   6.376  11.080  1.00  0.00    -0.035 C 
HETATM    9  C8  UNL     1       1.684   4.920  11.025  1.00  0.00     0.016 C 
HETATM   10  C9  UNL     1       2.245   7.368  11.643  1.00  0.00     0.009 C 
HETATM   11  C10 UNL     1       1.647   8.772  11.950  1.00  0.00     0.007 C 
HETATM   12  C11 UNL     1       0.153   8.859  12.233  1.00  0.00     0.011 C 
HETATM   13  C12 UNL     1      -0.453   7.607  12.888  1.00  0.00    -0.032 C 
HETATM   14  C13 UNL     1       0.302   7.379  14.234  1.00  0.00     0.016 C 
HETATM   15  C14 UNL     1      -0.229   6.405  11.911  1.00  0.00     0.003 C 
HETATM   16  C15 UNL     1      -0.632   5.089  12.631  1.00  0.00     0.006 C 
HETATM   17  C16 UNL     1      -1.899   5.188  13.497  1.00  0.00     0.006 C 
HETATM   18  C17 UNL     1      -2.792   6.364  13.099  1.00  0.00    -0.000 C 
HETATM   19  C18 UNL     1      -4.189   6.400  13.756  1.00  0.00     0.009 C 
HETATM   20  C19 UNL     1      -4.986   5.105  13.954  1.00  0.00     0.067 C 
HETATM   21  C20 UNL     1      -6.144   5.553  14.885  1.00  0.00     0.140 C 
HETATM   22  C21 UNL     1      -5.777   6.952  15.414  1.00  0.00     0.042 C 
HETATM   23  C22 UNL     1      -4.269   7.085  15.130  1.00  0.00    -0.037 C 
HETATM   24  C23 UNL     1      -3.504   6.387  16.276  1.00  0.00     0.015 C 
HETATM   25  C24 UNL     1      -3.793   8.532  14.972  1.00  0.00     0.010 C 
HETATM   26  C25 UNL     1      -2.346   8.583  14.460  1.00  0.00     0.011 C 
HETATM   27  C26 UNL     1      -2.059   7.778  13.142  1.00  0.00    -0.032 C 
HETATM   28  C27 UNL     1      -2.712   8.619  11.992  1.00  0.00     0.016 C 
HETATM   29  O2  UNL     1      -7.349   5.639  14.102  1.00  0.00    -0.313 OA
HETATM   30  C28 UNL     1      -7.148   5.093  12.867  1.00  0.00     0.297 C 
HETATM   31  O3  UNL     1      -7.974   5.025  11.973  1.00  0.00    -0.262 OA
HETATM   32  C29 UNL     1      -5.750   4.641  12.769  1.00  0.00     0.175 A 
HETATM   33  C30 UNL     1      -5.132   4.123  11.496  1.00  0.00     0.218 A 
HETATM   34  O4  UNL     1      -5.594   3.230  12.516  1.00  0.00    -0.364 OA
ENDROOT
TORSDOF 0
ENDMDL
