MODEL 1
REMARK minimizedAffinity -7.31428528
REMARK CNNscore 0.656895757
REMARK CNNaffinity 6.77786636
REMARK  9 active torsions:
REMARK  status: ('A' for Active; 'I' for Inactive)
REMARK    1  A    between atoms: C2_2  and  C3_3 
REMARK    2  A    between atoms: C2_2  and  C9_11 
REMARK    3  A    between atoms: C3_3  and  C4_4 
REMARK    4  A    between atoms: C4_4  and  C5_5 
REMARK    5  A    between atoms: C5_5  and  O1_6 
REMARK    6  A    between atoms: C5_5  and  C6_7 
REMARK    7  A    between atoms: C6_7  and  O2_10 
REMARK    8  A    between atoms: C17_19  and  C18_20 
REMARK    9  A    between atoms: C18_20  and  O3_23 
ROOT
HETATM    1  C9  UNL     1      -1.107  11.796  17.118  1.00  0.00    -0.002 C 
HETATM    2  C10 UNL     1      -2.294  12.738  16.759  1.00  0.00     0.006 C 
HETATM    3  C11 UNL     1      -3.262  11.914  15.866  1.00  0.00     0.011 C 
HETATM    4  C12 UNL     1      -2.471  10.639  15.506  1.00  0.00    -0.032 C 
HETATM    5  C13 UNL     1      -1.541  11.054  14.315  1.00  0.00     0.016 C 
HETATM    6  C14 UNL     1      -3.317   9.381  15.159  1.00  0.00     0.003 C 
HETATM    7  C15 UNL     1      -4.324   9.580  14.020  1.00  0.00     0.009 C 
HETATM    8  C16 UNL     1      -4.904   8.291  13.439  1.00  0.00     0.042 C 
HETATM    9  C17 UNL     1      -4.862   7.010  14.317  1.00  0.00     0.095 C 
HETATM   10  O4  UNL     1      -5.020   5.889  13.388  1.00  0.00    -0.377 OA
HETATM   11  C21 UNL     1      -3.834   5.454  12.745  1.00  0.00     0.169 C 
HETATM   12  C22 UNL     1      -2.907   4.794  13.742  1.00  0.00     0.027 C 
HETATM   13  C23 UNL     1      -2.955   5.439  15.122  1.00  0.00     0.010 C 
HETATM   14  C24 UNL     1      -3.548   6.865  15.178  1.00  0.00     0.032 C 
HETATM   15  C25 UNL     1      -2.487   8.049  15.044  1.00  0.00    -0.033 C 
HETATM   16  C26 UNL     1      -1.678   7.952  13.733  1.00  0.00     0.016 C 
HETATM   17  C27 UNL     1      -1.436   7.928  16.218  1.00  0.00     0.011 C 
HETATM   18  C28 UNL     1      -0.719   9.226  16.660  1.00  0.00     0.011 C 
HETATM   19  C29 UNL     1      -1.709  10.382  16.865  1.00  0.00    -0.032 C 
HETATM   20  C30 UNL     1      -2.629   9.991  18.065  1.00  0.00     0.016 C 
ENDROOT
BRANCH   1  21
HETATM   21  C2  UNL     1      -0.368  12.076  18.459  1.00  0.00    -0.014 C 
HETATM   22  C1  UNL     1      -0.982  13.329  19.111  1.00  0.00     0.010 C 
BRANCH  21  23
HETATM   23  C3  UNL     1      -0.366  10.915  19.482  1.00  0.00     0.007 C 
BRANCH  23  24
HETATM   24  C4  UNL     1       0.923  10.863  20.323  1.00  0.00     0.035 C 
BRANCH  24  25
HETATM   25  C5  UNL     1       2.190  10.915  19.448  1.00  0.00     0.151 C 
BRANCH  25  26
HETATM   26  O1  UNL     1       2.504   9.608  18.959  1.00  0.00    -0.393 OA
HETATM   27  H10 UNL     1       2.402   8.978  19.694  1.00  0.00     0.210 HD
ENDBRANCH  25  26
BRANCH  25  28
HETATM   28  C6  UNL     1       3.421  11.549  20.165  1.00  0.00     0.076 C 
HETATM   29  C7  UNL     1       3.543  13.056  19.911  1.00  0.00     0.048 C 
HETATM   30  C8  UNL     1       3.339  11.295  21.677  1.00  0.00     0.048 C 
BRANCH  28  31
HETATM   31  O2  UNL     1       4.616  10.924  19.679  1.00  0.00    -0.388 OA
HETATM   32  H17 UNL     1       5.370  11.281  20.180  1.00  0.00     0.210 HD
ENDBRANCH  28  31
ENDBRANCH  25  28
ENDBRANCH  24  25
ENDBRANCH  23  24
ENDBRANCH  21  23
ENDBRANCH   1  21
BRANCH   9  33
HETATM   33  C18 UNL     1      -6.193   6.882  15.197  1.00  0.00     0.082 C 
HETATM   34  C19 UNL     1      -6.510   5.479  15.718  1.00  0.00     0.049 C 
HETATM   35  C20 UNL     1      -7.445   7.434  14.491  1.00  0.00     0.049 C 
BRANCH  33  36
HETATM   36  O3  UNL     1      -6.027   7.713  16.368  1.00  0.00    -0.388 OA
HETATM   37  H37 UNL     1      -5.628   8.539  16.025  1.00  0.00     0.210 HD
ENDBRANCH  33  36
ENDBRANCH   9  33
TORSDOF 9
ENDMDL
