MODEL 1
REMARK minimizedAffinity -8.98194885
REMARK  11 active torsions:
REMARK  status: ('A' for Active; 'I' for Inactive)
REMARK    1  A    between atoms: C7_8  and  C8_9 
REMARK    2  A    between atoms: C8_9  and  C10_11 
REMARK    3  A    between atoms: C10_11  and  O2_12 
REMARK    4  A    between atoms: C16_18  and  O3_20 
REMARK    5  A    between atoms: O3_20  and  C18_21 
REMARK    6  A    between atoms: C18_21  and  C19_23 
REMARK    7  A    between atoms: C19_23  and  C20_24 
REMARK    8  A    between atoms: C19_23  and  O5_26 
REMARK    9  A    between atoms: O5_26  and  C22_27 
REMARK   10  A    between atoms: C22_27  and  C23_29 
REMARK   11  A    between atoms: C23_29  and  C24_30 
ROOT
HETATM    1  C1  UNL     1      -0.442  53.664 -28.150  1.00  0.00     0.022 C 
HETATM    2  C2  UNL     1      -0.693  53.074 -26.968  1.00  0.00    -0.019 C 
HETATM    3  C3  UNL     1      -1.580  51.859 -26.811  1.00  0.00     0.074 C 
HETATM    4  C4  UNL     1      -2.827  52.107 -25.949  1.00  0.00     0.135 C 
HETATM    5  O1  UNL     1      -2.442  52.946 -24.847  1.00  0.00    -0.376 OA
HETATM    6  C5  UNL     1      -2.667  52.298 -23.596  1.00  0.00     0.162 C 
HETATM    7  C6  UNL     1      -3.850  51.374 -23.896  1.00  0.00     0.033 C 
HETATM    8  C7  UNL     1      -4.255  50.326 -22.837  1.00  0.00    -0.001 C 
HETATM    9  C11 UNL     1      -4.933  49.152 -23.550  1.00  0.00     0.010 C 
HETATM   10  C12 UNL     1      -3.959  48.489 -24.527  1.00  0.00     0.034 C 
HETATM   11  C13 UNL     1      -3.322  49.441 -25.523  1.00  0.00    -0.082 C 
HETATM   12  C14 UNL     1      -2.621  48.875 -26.525  1.00  0.00     0.015 C 
HETATM   13  C15 UNL     1      -3.650  50.918 -25.363  1.00  0.00     0.050 C 
HETATM   14  C16 UNL     1      -1.297  51.808 -23.004  1.00  0.00     0.094 C 
HETATM   15  C17 UNL     1      -0.853  50.399 -23.435  1.00  0.00     0.049 C 
HETATM   16  C26 UNL     1      -0.122  52.811 -23.310  1.00  0.00     0.048 C 
HETATM   17  C27 UNL     1       0.551  52.749 -24.693  1.00  0.00     0.086 C 
HETATM   18  C28 UNL     1      -0.039  53.680 -25.748  1.00  0.00     0.155 C 
HETATM   19  O7  UNL     1       0.078  54.902 -25.649  1.00  0.00    -0.293 OA
ENDROOT
BRANCH  14  20
HETATM   20  O3  UNL     1      -1.407  51.642 -21.542  1.00  0.00    -0.306 OA
BRANCH  20  21
HETATM   21  C18 UNL     1      -0.508  50.905 -20.831  1.00  0.00     0.289 C 
HETATM   22  O4  UNL     1      -0.278  49.715 -20.991  1.00  0.00    -0.262 OA
BRANCH  21  23
HETATM   23  C19 UNL     1       0.162  51.782 -19.767  1.00  0.00     0.231 C 
BRANCH  23  24
HETATM   24  C20 UNL     1      -0.013  53.260 -20.136  1.00  0.00     0.038 C 
HETATM   25  C21 UNL     1       1.324  53.956 -20.358  1.00  0.00     0.008 C 
ENDBRANCH  23  24
BRANCH  23  26
HETATM   26  O5  UNL     1      -0.458  51.578 -18.487  1.00  0.00    -0.306 OA
BRANCH  26  27
HETATM   27  C22 UNL     1       0.395  51.174 -17.503  1.00  0.00     0.259 C 
HETATM   28  O6  UNL     1       0.502  50.022 -17.109  1.00  0.00    -0.265 OA
BRANCH  27  29
HETATM   29  C23 UNL     1       1.190  52.356 -17.010  1.00  0.00     0.111 C 
BRANCH  29  30
HETATM   30  C24 UNL     1       2.209  51.993 -15.930  1.00  0.00     0.005 C 
HETATM   31  C25 UNL     1       3.620  52.448 -16.280  1.00  0.00     0.005 C 
ENDBRANCH  29  30
ENDBRANCH  27  29
ENDBRANCH  26  27
ENDBRANCH  23  26
ENDBRANCH  21  23
ENDBRANCH  20  21
ENDBRANCH  14  20
BRANCH   8  32
HETATM   32  C8  UNL     1      -5.098  50.965 -21.686  1.00  0.00     0.010 C 
HETATM   33  C9  UNL     1      -6.498  50.355 -21.531  1.00  0.00     0.012 C 
BRANCH  32  34
HETATM   34  C10 UNL     1      -4.363  50.943 -20.333  1.00  0.00     0.168 C 
BRANCH  34  35
HETATM   35  O2  UNL     1      -4.823  49.894 -19.494  1.00  0.00    -0.400 OA
HETATM   36  H15 UNL     1      -4.338  49.968 -18.653  1.00  0.00     0.209 HD
ENDBRANCH  34  35
ENDBRANCH  32  34
ENDBRANCH   8  32
TORSDOF 11
ENDMDL
