MODEL 1
REMARK minimizedAffinity -8.1811676
REMARK CNNscore 0.463980734
REMARK CNNaffinity 6.53045416
REMARK  12 active torsions:
REMARK  status: ('A' for Active; 'I' for Inactive)
REMARK    1  A    between atoms: C3_3  and  O1_4 
REMARK    2  A    between atoms: N1_14  and  O2_16 
REMARK    3  A    between atoms: O2_16  and  C13_17 
REMARK    4  A    between atoms: C13_17  and  C14_18 
REMARK       I    between atoms: C14_18  and  N2_20 
REMARK    5  A    between atoms: N2_20  and  C15_21 
REMARK    6  A    between atoms: C15_21  and  C16_22 
REMARK    7  A    between atoms: C15_21  and  C27_38 
REMARK       I    between atoms: C16_22  and  N3_24 
REMARK    8  A    between atoms: N3_24  and  C17_25 
REMARK    9  A    between atoms: C17_25  and  C18_26 
REMARK   10  A    between atoms: C17_25  and  C20_30 
REMARK   11  A    between atoms: C18_26  and  C19_27 
REMARK   12  A    between atoms: C19_27  and  O6_29 
ROOT
HETATM    1  C1  UNL     1       2.308   6.898   8.479  1.00  0.00     0.015 C 
HETATM    2  C2  UNL     1       2.280   6.830   9.680  1.00  0.00    -0.078 C 
HETATM    3  C3  UNL     1       2.262   6.716  11.157  1.00  0.00     0.128 C 
HETATM    4  C4  UNL     1       2.589   8.079  11.784  1.00  0.00     0.052 C 
HETATM    5  C5  UNL     1       1.241   8.797  11.940  1.00  0.00     0.010 C 
HETATM    6  C6  UNL     1       0.144   7.746  11.690  1.00  0.00     0.002 C 
HETATM    7  C7  UNL     1      -1.139   7.850  12.543  1.00  0.00    -0.004 C 
HETATM    8  C8  UNL     1      -1.795   9.247  12.458  1.00  0.00     0.010 C 
HETATM    9  C9  UNL     1      -2.274   9.789  13.798  1.00  0.00     0.035 C 
HETATM   10  C10 UNL     1      -1.146   9.675  14.786  1.00  0.00    -0.069 C 
HETATM   11  C11 UNL     1      -0.507  10.775  15.222  1.00  0.00     0.030 C 
HETATM   12  C12 UNL     1       0.652  10.697  16.144  1.00  0.00     0.032 C 
HETATM   13  N1  UNL     1       1.192  11.820  16.526  1.00  0.00    -0.271 N 
ATOM     14  H1  UNL     1       0.866  12.742  16.234  1.00  0.00     0.194 HD
HETATM   15  C30 UNL     1       1.107   9.328  16.613  1.00  0.00     0.060 C 
HETATM   16  C31 UNL     1       0.739   8.231  15.615  1.00  0.00     0.020 C 
HETATM   17  C32 UNL     1      -0.743   8.255  15.166  1.00  0.00    -0.016 C 
HETATM   18  C33 UNL     1      -1.612   7.835  16.386  1.00  0.00     0.020 C 
HETATM   19  C34 UNL     1      -1.070   7.254  13.980  1.00  0.00     0.002 C 
HETATM   20  C35 UNL     1      -0.332   5.903  14.007  1.00  0.00     0.007 C 
HETATM   21  C36 UNL     1       0.982   5.875  13.225  1.00  0.00     0.014 C 
HETATM   22  C37 UNL     1       0.861   6.376  11.758  1.00  0.00     0.003 C 
HETATM   23  C38 UNL     1       0.117   5.300  10.939  1.00  0.00     0.020 C 
ENDROOT
BRANCH   3  24
HETATM   24  O1  UNL     1       3.231   5.750  11.535  1.00  0.00    -0.377 OA
HETATM   25  H2  UNL     1       4.060   5.996  11.086  1.00  0.00     0.211 HD
ENDBRANCH   3  24
BRANCH  13  26
HETATM   26  O2  UNL     1       2.274  11.605  17.390  1.00  0.00    -0.271 OA
BRANCH  26  27
HETATM   27  C13 UNL     1       2.553  12.800  18.114  1.00  0.00     0.303 C 
BRANCH  27  28
HETATM   28  C14 UNL     1       2.532  12.502  19.607  1.00  0.00     0.244 C 
HETATM   29  O3  UNL     1       1.742  13.037  20.384  1.00  0.00    -0.271 OA
HETATM   30  N2  UNL     1       3.445  11.544  20.001  1.00  0.00    -0.346 N 
HETATM   31  H16 UNL     1       4.209  11.430  19.339  1.00  0.00     0.163 HD
BRANCH  30  32
HETATM   32  C15 UNL     1       3.792  11.384  21.409  1.00  0.00     0.180 C 
BRANCH  32  33
HETATM   33  C16 UNL     1       5.254  11.862  21.562  1.00  0.00     0.241 C 
HETATM   34  O4  UNL     1       6.131  11.570  20.745  1.00  0.00    -0.271 OA
HETATM   35  N3  UNL     1       5.509  12.592  22.701  1.00  0.00    -0.354 N 
HETATM   36  H18 UNL     1       4.726  12.882  23.286  1.00  0.00     0.162 HD
BRANCH  35  37
HETATM   37  C17 UNL     1       6.795  13.244  22.955  1.00  0.00     0.098 C 
BRANCH  37  38
HETATM   38  C18 UNL     1       7.778  12.917  21.815  1.00  0.00     0.135 C 
BRANCH  38  39
HETATM   39  C19 UNL     1       9.124  12.468  22.320  1.00  0.00     0.141 C 
HETATM   40  O5  UNL     1      10.213  12.870  21.946  1.00  0.00    -0.650 OA
BRANCH  39  41
HETATM   41  O6  UNL     1       9.022  11.494  23.244  1.00  0.00    -0.776 OA
HETATM   42  H22 UNL     1       9.947  11.261  23.467  1.00  0.00     0.167 HD
ENDBRANCH  39  41
ENDBRANCH  38  39
ENDBRANCH  37  38
BRANCH  37  43
HETATM   43  C20 UNL     1       6.589  14.756  23.220  1.00  0.00     0.014 C 
HETATM   44  C21 UNL     1       5.101  15.146  23.288  1.00  0.00     0.033 C 
HETATM   45  C22 UNL     1       4.851  16.597  22.894  1.00  0.00     0.169 C 
HETATM   46  O7  UNL     1       5.957  17.416  23.239  1.00  0.00    -0.381 OA
HETATM   47  C23 UNL     1       7.154  17.125  22.501  1.00  0.00     0.054 C 
HETATM   48  C24 UNL     1       8.313  17.557  23.408  1.00  0.00     0.045 C 
HETATM   49  C25 UNL     1       7.175  17.980  21.227  1.00  0.00     0.045 C 
HETATM   50  C26 UNL     1       7.273  15.627  22.152  1.00  0.00     0.044 C 
ENDBRANCH  37  43
ENDBRANCH  35  37
ENDBRANCH  32  33
BRANCH  32  51
HETATM   51  C27 UNL     1       3.570   9.925  21.868  1.00  0.00     0.009 C 
HETATM   52  C28 UNL     1       2.168   9.414  21.513  1.00  0.00     0.012 C 
HETATM   53  C29 UNL     1       3.857   9.706  23.358  1.00  0.00     0.012 C 
ENDBRANCH  32  51
ENDBRANCH  30  32
ENDBRANCH  27  28
ENDBRANCH  26  27
ENDBRANCH  13  26
TORSDOF 12
ENDMDL
