MODEL 1
REMARK minimizedAffinity -7.44783783
REMARK  9 active torsions:
REMARK  status: ('A' for Active; 'I' for Inactive)
REMARK    1  A    between atoms: O1_2  and  C2_3 
REMARK    2  A    between atoms: C2_3  and  C3_4 
REMARK    3  A    between atoms: C3_4  and  N1_5 
REMARK       I    between atoms: N1_5  and  C4_6 
REMARK    4  A    between atoms: C4_6  and  C5_8 
REMARK    5  A    between atoms: C5_8  and  C7_10 
REMARK    6  A    between atoms: C14_17  and  N2_18 
REMARK       I    between atoms: N2_18  and  C15_19 
REMARK    7  A    between atoms: C15_19  and  C16_21 
REMARK    8  A    between atoms: C16_21  and  O4_22 
REMARK    9  A    between atoms: C21_27  and  O5_28 
ROOT
HETATM    1  C7  UNL     1       0.012  51.974 -23.469  1.00  0.00     0.027 C 
HETATM    2  C8  UNL     1       0.455  52.787 -22.247  1.00  0.00     0.009 C 
HETATM    3  C9  UNL     1       0.072  52.103 -20.930  1.00  0.00     0.010 C 
HETATM    4  C10 UNL     1      -1.274  51.322 -20.957  1.00  0.00    -0.037 C 
HETATM    5  C11 UNL     1      -0.985  49.812 -21.149  1.00  0.00     0.015 C 
HETATM    6  C12 UNL     1      -1.960  51.513 -19.580  1.00  0.00     0.011 C 
HETATM    7  C13 UNL     1      -3.351  50.897 -19.507  1.00  0.00     0.026 C 
HETATM    8  C14 UNL     1      -4.269  51.395 -20.629  1.00  0.00     0.088 C 
HETATM    9  C18 UNL     1      -3.628  51.251 -22.037  1.00  0.00     0.012 C 
HETATM   10  C19 UNL     1      -4.572  51.848 -23.095  1.00  0.00     0.012 C 
HETATM   11  C20 UNL     1      -2.201  51.897 -22.067  1.00  0.00     0.028 C 
HETATM   12  C21 UNL     1      -1.539  51.878 -23.477  1.00  0.00     0.128 C 
ENDROOT
BRANCH   1  13
HETATM   13  C5  UNL     1       0.616  52.536 -24.789  1.00  0.00     0.080 C 
HETATM   14  C6  UNL     1       0.185  53.980 -25.070  1.00  0.00     0.020 C 
BRANCH  13  15
HETATM   15  C4  UNL     1       0.256  51.673 -26.000  1.00  0.00     0.222 C 
HETATM   16  N1  UNL     1      -1.001  51.878 -26.523  1.00  0.00    -0.359 N 
HETATM   17  H8  UNL     1      -1.619  52.558 -26.102  1.00  0.00     0.162 HD
HETATM   18  O2  UNL     1       1.045  50.860 -26.473  1.00  0.00    -0.273 OA
BRANCH  16  19
HETATM   19  C3  UNL     1      -1.499  51.102 -27.642  1.00  0.00     0.148 C 
BRANCH  19  20
HETATM   20  C2  UNL     1      -3.023  51.119 -27.768  1.00  0.00     0.186 C 
BRANCH  20  21
HETATM   21  O1  UNL     1      -3.449  49.903 -28.390  1.00  0.00    -0.394 OA
HETATM   22  C1  UNL     1      -3.493  48.832 -27.457  1.00  0.00     0.201 C 
ENDBRANCH  20  21
ENDBRANCH  19  20
ENDBRANCH  16  19
ENDBRANCH  13  15
ENDBRANCH   1  13
BRANCH  12  23
HETATM   23  O5  UNL     1      -2.050  53.008 -24.191  1.00  0.00    -0.395 OA
HETATM   24  H38 UNL     1      -2.619  52.685 -24.910  1.00  0.00     0.210 HD
ENDBRANCH  12  23
BRANCH   8  25
HETATM   25  N2  UNL     1      -5.536  50.680 -20.557  1.00  0.00    -0.354 N 
HETATM   26  C15 UNL     1      -5.636  49.317 -20.745  1.00  0.00     0.241 C 
HETATM   27  O3  UNL     1      -4.673  48.565 -20.854  1.00  0.00    -0.271 OA
HETATM   28  H26 UNL     1      -6.410  51.187 -20.669  1.00  0.00     0.162 HD
BRANCH  26  29
HETATM   29  C16 UNL     1      -7.081  48.812 -20.782  1.00  0.00     0.269 C 
BRANCH  29  30
HETATM   30  O4  UNL     1      -7.852  49.484 -21.781  1.00  0.00    -0.387 OA
HETATM   31  C17 UNL     1      -7.628  48.921 -23.068  1.00  0.00     0.202 C 
ENDBRANCH  29  30
ENDBRANCH  26  29
ENDBRANCH   8  25
TORSDOF 9
ENDMDL
