MODEL 1
REMARK minimizedAffinity -9.22942352
REMARK  11 active torsions:
REMARK  status: ('A' for Active; 'I' for Inactive)
REMARK    1  A    between atoms: C2_2  and  C3_3 
REMARK    2  A    between atoms: C2_2  and  C4_5 
REMARK    3  A    between atoms: C3_3  and  O1_4 
REMARK    4  A    between atoms: C8_9  and  O2_10 
REMARK    5  A    between atoms: C9_11  and  C10_12 
REMARK    6  A    between atoms: C10_12  and  O3_13 
REMARK    7  A    between atoms: O3_13  and  C11_14 
REMARK    8  A    between atoms: C11_14  and  C12_16 
REMARK    9  A    between atoms: C19_23  and  O5_24 
REMARK   10  A    between atoms: C24_29  and  C25_30 
REMARK   11  A    between atoms: C25_30  and  O6_31 
ROOT
HETATM    1  C4  UNL     1      -1.089  51.747 -25.954  1.00  0.00    -0.070 C 
HETATM    2  C5  UNL     1      -1.806  50.927 -25.158  1.00  0.00    -0.061 C 
HETATM    3  C6  UNL     1      -1.715  50.526 -23.691  1.00  0.00     0.029 C 
HETATM    4  C7  UNL     1      -0.392  50.726 -22.935  1.00  0.00     0.046 C 
HETATM    5  C8  UNL     1      -0.224  51.942 -22.025  1.00  0.00     0.149 C 
HETATM    6  C9  UNL     1      -1.001  51.945 -20.717  1.00  0.00    -0.029 C 
HETATM    7  C18 UNL     1      -2.148  51.265 -20.501  1.00  0.00     0.013 C 
HETATM    8  C19 UNL     1      -3.004  50.480 -21.457  1.00  0.00     0.150 C 
HETATM    9  C20 UNL     1      -3.032  50.916 -22.952  1.00  0.00    -0.007 C 
HETATM   10  C21 UNL     1      -3.374  52.429 -23.045  1.00  0.00     0.019 C 
HETATM   11  C22 UNL     1      -4.186  50.127 -23.668  1.00  0.00     0.014 C 
HETATM   12  C23 UNL     1      -4.292  50.421 -25.172  1.00  0.00     0.017 C 
HETATM   13  C24 UNL     1      -2.954  50.263 -25.935  1.00  0.00     0.005 C 
HETATM   14  C26 UNL     1      -2.984  51.083 -27.240  1.00  0.00     0.020 C 
HETATM   15  C27 UNL     1      -1.598  51.698 -27.374  1.00  0.00     0.036 C 
ENDROOT
BRANCH   6  16
HETATM   16  C10 UNL     1      -0.387  52.848 -19.650  1.00  0.00     0.215 C 
BRANCH  16  17
HETATM   17  O3  UNL     1       0.651  52.195 -18.900  1.00  0.00    -0.313 OA
BRANCH  17  18
HETATM   18  C11 UNL     1       0.304  51.739 -17.672  1.00  0.00     0.293 C 
HETATM   19  O4  UNL     1      -0.795  51.324 -17.337  1.00  0.00    -0.259 OA
BRANCH  18  20
HETATM   20  C12 UNL     1       1.461  51.833 -16.739  1.00  0.00     0.039 A 
HETATM   21  C13 UNL     1       1.423  51.073 -15.561  1.00  0.00     0.017 A 
HETATM   22  C14 UNL     1       2.480  51.131 -14.651  1.00  0.00     0.001 A 
HETATM   23  C15 UNL     1       3.580  51.948 -14.911  1.00  0.00     0.000 A 
HETATM   24  C16 UNL     1       3.626  52.707 -16.080  1.00  0.00     0.001 A 
HETATM   25  C17 UNL     1       2.571  52.651 -16.994  1.00  0.00     0.017 A 
ENDBRANCH  18  20
ENDBRANCH  17  18
ENDBRANCH  16  17
ENDBRANCH   6  16
BRANCH   5  26
HETATM   26  O2  UNL     1       1.173  51.987 -21.695  1.00  0.00    -0.391 OA
HETATM   27  H12 UNL     1       1.400  51.131 -21.292  1.00  0.00     0.210 HD
ENDBRANCH   5  26
BRANCH   8  28
HETATM   28  O5  UNL     1      -2.653  49.104 -21.338  1.00  0.00    -0.391 OA
HETATM   29  H22 UNL     1      -2.431  48.934 -20.406  1.00  0.00     0.210 HD
ENDBRANCH   8  28
BRANCH   1  30
HETATM   30  C2  UNL     1       0.097  52.630 -25.647  1.00  0.00     0.034 C 
HETATM   31  C1  UNL     1       1.408  51.844 -25.765  1.00  0.00     0.017 C 
BRANCH  30  32
HETATM   32  C3  UNL     1       0.115  53.893 -26.529  1.00  0.00     0.172 C 
BRANCH  32  33
HETATM   33  O1  UNL     1       0.214  55.078 -25.743  1.00  0.00    -0.400 OA
HETATM   34  H7  UNL     1       1.053  55.042 -25.254  1.00  0.00     0.209 HD
ENDBRANCH  32  33
ENDBRANCH  30  32
ENDBRANCH   1  30
BRANCH  13  35
HETATM   35  C25 UNL     1      -2.693  48.761 -26.234  1.00  0.00     0.178 C 
BRANCH  35  36
HETATM   36  O6  UNL     1      -3.176  48.374 -27.517  1.00  0.00    -0.400 OA
HETATM   37  H32 UNL     1      -2.860  47.469 -27.678  1.00  0.00     0.209 HD
ENDBRANCH  35  36
ENDBRANCH  13  35
TORSDOF 11
ENDMDL
