MODEL 1
REMARK minimizedAffinity -8.20617104
REMARK  4 active torsions:
REMARK  status: ('A' for Active; 'I' for Inactive)
REMARK    1  A    between atoms: C2_2  and  C4_4 
REMARK    2  A    between atoms: C13_13  and  C15_15 
REMARK    3  A    between atoms: C15_15  and  O1_16 
REMARK    4  A    between atoms: C18_19  and  O2_20 
ROOT
HETATM    1  C4  UNL     1      -5.748   4.702  12.876  1.00  0.00     0.021 C 
HETATM    2  C5  UNL     1      -4.865   3.532  12.392  1.00  0.00     0.008 C 
HETATM    3  C6  UNL     1      -3.346   3.810  12.374  1.00  0.00     0.009 C 
HETATM    4  C7  UNL     1      -2.960   5.284  12.624  1.00  0.00     0.034 C 
HETATM    5  C8  UNL     1      -1.407   5.601  12.572  1.00  0.00    -0.033 C 
HETATM    6  C9  UNL     1      -0.574   4.439  13.166  1.00  0.00     0.016 C 
HETATM    7  C10 UNL     1      -1.003   5.756  11.080  1.00  0.00     0.010 C 
HETATM    8  C11 UNL     1       0.375   6.377  10.882  1.00  0.00     0.002 C 
HETATM    9  C12 UNL     1       0.445   7.757  11.519  1.00  0.00     0.012 C 
HETATM   10  C13 UNL     1       0.141   7.765  13.039  1.00  0.00    -0.018 C 
HETATM   11  C14 UNL     1       1.372   7.230  13.803  1.00  0.00     0.018 C 
HETATM   12  C16 UNL     1      -1.193   6.968  13.321  1.00  0.00     0.007 C 
HETATM   13  C17 UNL     1      -1.555   6.856  14.823  1.00  0.00     0.041 C 
HETATM   14  C18 UNL     1      -2.740   5.928  15.122  1.00  0.00     0.156 C 
HETATM   15  C19 UNL     1      -3.611   5.728  13.919  1.00  0.00     0.118 A 
HETATM   16  O3  UNL     1      -4.648   6.717  13.781  1.00  0.00    -0.366 OA
HETATM   17  C20 UNL     1      -5.076   5.375  14.050  1.00  0.00     0.165 A 
ENDROOT
BRANCH  10  18
HETATM   18  C15 UNL     1      -0.066   9.249  13.478  1.00  0.00     0.173 C 
BRANCH  18  19
HETATM   19  O1  UNL     1      -1.097   9.896  12.740  1.00  0.00    -0.400 OA
HETATM   20  H28 UNL     1      -0.747  10.099  11.856  1.00  0.00     0.209 HD
ENDBRANCH  18  19
ENDBRANCH  10  18
BRANCH  14  21
HETATM   21  O2  UNL     1      -3.485   6.481  16.211  1.00  0.00    -0.392 OA
HETATM   22  H33 UNL     1      -4.048   7.177  15.818  1.00  0.00     0.210 HD
ENDBRANCH  14  21
BRANCH   1  23
HETATM   23  C2  UNL     1      -7.198   4.267  13.222  1.00  0.00    -0.016 C 
HETATM   24  C1  UNL     1      -7.441   2.778  12.952  1.00  0.00     0.010 C 
HETATM   25  C3  UNL     1      -8.225   5.087  12.429  1.00  0.00     0.010 C 
ENDBRANCH   1  23
TORSDOF 4
ENDMDL
