MODEL 1
REMARK minimizedAffinity -9.04933357
REMARK CNNscore 0.631442666
REMARK CNNaffinity 7.71694422
REMARK  13 active torsions:
REMARK  status: ('A' for Active; 'I' for Inactive)
REMARK    1  A    between atoms: O1_2  and  C2_3 
REMARK    2  A    between atoms: C2_3  and  C3_4 
REMARK    3  A    between atoms: C3_4  and  C4_5 
REMARK    4  A    between atoms: C4_5  and  O2_6 
REMARK    5  A    between atoms: O2_6  and  C5_7 
REMARK    6  A    between atoms: C20_23  and  C21_24 
REMARK    7  A    between atoms: C21_24  and  O4_26 
REMARK    8  A    between atoms: C21_24  and  C23_27 
REMARK    9  A    between atoms: C23_27  and  O5_28 
REMARK   10  A    between atoms: C23_27  and  C24_29 
REMARK   11  A    between atoms: C28_34  and  C29_35 
REMARK       I    between atoms: C29_35  and  N1_37 
REMARK   12  A    between atoms: C32_41  and  O8_42 
REMARK   13  A    between atoms: C39_49  and  O9_50 
ROOT
HETATM    1  C5  UNL     1     -10.315   7.257  13.378  1.00  0.00     0.122 C 
HETATM    2  C6  UNL     1     -10.052   7.603  14.850  1.00  0.00     0.033 C 
HETATM    3  C7  UNL     1      -8.557   7.719  15.128  1.00  0.00     0.013 C 
HETATM    4  C8  UNL     1      -7.792   6.381  14.883  1.00  0.00    -0.026 C 
HETATM    5  C9  UNL     1      -7.647   5.651  16.240  1.00  0.00     0.016 C 
HETATM    6  C10 UNL     1      -8.623   5.455  13.940  1.00  0.00     0.071 C 
HETATM    7  C11 UNL     1      -9.292   6.257  12.815  1.00  0.00     0.045 C 
HETATM    8  C12 UNL     1      -7.846   4.284  13.345  1.00  0.00     0.161 C 
HETATM    9  O3  UNL     1      -8.435   3.304  12.880  1.00  0.00    -0.292 OA
HETATM   10  C13 UNL     1      -6.359   4.350  13.249  1.00  0.00    -0.006 C 
HETATM   11  C14 UNL     1      -5.727   5.457  13.687  1.00  0.00    -0.030 C 
HETATM   12  C15 UNL     1      -6.396   6.700  14.243  1.00  0.00     0.027 C 
HETATM   13  C16 UNL     1      -5.466   7.571  15.144  1.00  0.00     0.011 C 
HETATM   14  C17 UNL     1      -4.006   7.713  14.645  1.00  0.00     0.014 C 
HETATM   15  C18 UNL     1      -3.379   6.325  14.417  1.00  0.00    -0.002 C 
HETATM   16  C19 UNL     1      -3.298   5.584  15.782  1.00  0.00     0.019 C 
HETATM   17  C20 UNL     1      -2.027   6.237  13.611  1.00  0.00     0.034 C 
HETATM   18  C35 UNL     1      -2.066   4.796  12.979  1.00  0.00     0.016 C 
HETATM   19  C36 UNL     1      -3.515   4.308  13.169  1.00  0.00     0.026 C 
HETATM   20  C37 UNL     1      -4.185   3.465  12.105  1.00  0.00     0.013 C 
HETATM   21  C38 UNL     1      -5.655   3.201  12.528  1.00  0.00     0.043 C 
HETATM   22  C39 UNL     1      -4.279   5.607  13.379  1.00  0.00     0.094 C 
ENDROOT
BRANCH  17  23
HETATM   23  C21 UNL     1      -0.652   6.745  14.162  1.00  0.00     0.087 C 
HETATM   24  C22 UNL     1       0.493   6.678  13.153  1.00  0.00     0.049 C 
BRANCH  23  25
HETATM   25  O4  UNL     1      -0.318   5.839  15.230  1.00  0.00    -0.387 OA
HETATM   26  H33 UNL     1       0.117   6.357  15.934  1.00  0.00     0.210 HD
ENDBRANCH  23  25
BRANCH  23  27
HETATM   27  C23 UNL     1      -0.867   8.225  14.699  1.00  0.00     0.181 C 
BRANCH  27  28
HETATM   28  O5  UNL     1      -0.723   9.191  13.656  1.00  0.00    -0.390 OA
HETATM   29  H35 UNL     1      -1.162  10.009  13.953  1.00  0.00     0.210 HD
ENDBRANCH  27  28
BRANCH  27  30
HETATM   30  C24 UNL     1      -0.171   8.693  16.003  1.00  0.00     0.158 C 
HETATM   31  O6  UNL     1       1.167   9.204  15.745  1.00  0.00    -0.373 OA
HETATM   32  C25 UNL     1       1.546   9.825  16.981  1.00  0.00     0.185 C 
HETATM   33  C26 UNL     1       0.316  10.629  17.338  1.00  0.00     0.028 C 
HETATM   34  C32 UNL     1       2.773  10.738  16.918  1.00  0.00     0.384 C 
HETATM   35  C27 UNL     1       0.509  11.208  18.731  1.00  0.00     0.053 C 
HETATM   36  C33 UNL     1      -0.799   9.607  17.097  1.00  0.00     0.020 C 
HETATM   37  C28 UNL     1       1.811  12.050  18.774  1.00  0.00     0.309 C 
HETATM   38  N2  UNL     1       3.008  11.387  18.197  1.00  0.00     0.128 N 
HETATM   39  H46 UNL     1       3.347  10.690  18.862  1.00  0.00     0.320 HD
HETATM   40  C34 UNL     1      -2.146  10.272  16.863  1.00  0.00     0.013 C 
BRANCH  37  41
HETATM   41  C29 UNL     1       2.117  12.387  20.243  1.00  0.00     0.233 C 
HETATM   42  O7  UNL     1       1.854  11.610  21.166  1.00  0.00    -0.277 OA
HETATM   43  N1  UNL     1       2.692  13.649  20.404  1.00  0.00    -0.249 NA
HETATM   44  C30 UNL     1       3.637  13.850  21.476  1.00  0.00     0.113 A 
HETATM   45  C31 UNL     1       2.297  14.484  21.507  1.00  0.00     0.113 A 
ENDBRANCH  37  41
BRANCH  34  46
HETATM   46  O8  UNL     1       3.912   9.956  16.606  1.00  0.00    -0.366 OA
HETATM   47  H48 UNL     1       3.707   9.520  15.766  1.00  0.00     0.212 HD
ENDBRANCH  34  46
ENDBRANCH  27  30
ENDBRANCH  23  27
ENDBRANCH  17  23
BRANCH  22  48
HETATM   48  O9  UNL     1      -4.292   6.360  12.138  1.00  0.00    -0.384 OA
HETATM   49  H60 UNL     1      -4.942   5.954  11.542  1.00  0.00     0.211 HD
ENDBRANCH  22  48
BRANCH   1  50
HETATM   50  O2  UNL     1     -11.628   6.692  13.294  1.00  0.00    -0.386 OA
BRANCH  50  51
HETATM   51  C4  UNL     1     -12.331   6.709  14.538  1.00  0.00     0.170 C 
BRANCH  51  52
HETATM   52  C3  UNL     1     -13.757   7.193  14.312  1.00  0.00     0.052 C 
BRANCH  52  53
HETATM   53  C2  UNL     1     -13.835   8.177  13.151  1.00  0.00     0.169 C 
BRANCH  53  54
HETATM   54  O1  UNL     1     -14.671   7.621  12.136  1.00  0.00    -0.396 OA
HETATM   55  C1  UNL     1     -15.782   6.935  12.705  1.00  0.00     0.201 C 
ENDBRANCH  53  54
ENDBRANCH  52  53
ENDBRANCH  51  52
ENDBRANCH  50  51
ENDBRANCH   1  50
TORSDOF 13
ENDMDL
