MODEL 1
REMARK minimizedAffinity -8.14720917
REMARK CNNscore 0.336231917
REMARK CNNaffinity 7.11208487
REMARK  10 active torsions:
REMARK  status: ('A' for Active; 'I' for Inactive)
REMARK       I    between atoms: N1_1  and  C1_2 
REMARK       I    between atoms: C1_2  and  N2_3 
REMARK    1  A    between atoms: N3_4  and  C2_6 
REMARK    2  A    between atoms: C2_6  and  C3_7 
REMARK    3  A    between atoms: C3_7  and  C4_8 
REMARK    4  A    between atoms: C4_8  and  C5_9 
REMARK    5  A    between atoms: C5_9  and  O1_10 
REMARK    6  A    between atoms: C18_24  and  S1_25 
REMARK    7  A    between atoms: C27_37  and  C28_38 
REMARK    8  A    between atoms: C28_38  and  O6_39 
REMARK    9  A    between atoms: C34_45  and  O7_46 
REMARK   10  A    between atoms: C45_58  and  NA1_59 
ROOT
HETATM    1  C2  UNL     1       2.992  51.901  -9.553  1.00  0.00     0.170 C 
HETATM    2  O2  UNL     1       2.911  52.766 -10.757  1.00  0.00    -0.316 OA
HETATM    3  C10 UNL     1       2.826  54.116 -10.508  1.00  0.00     0.072 C 
HETATM    4  C11 UNL     1       1.929  54.675  -9.604  1.00  0.00     0.037 C 
HETATM    5  C12 UNL     1       2.205  55.929  -9.067  1.00  0.00     0.010 C 
HETATM    6  C13 UNL     1       3.362  56.617  -9.458  1.00  0.00    -0.058 C 
HETATM    7  C14 UNL     1       4.096  56.159 -10.563  1.00  0.00     0.010 C 
HETATM    8  C15 UNL     1       3.819  54.903 -11.093  1.00  0.00     0.037 C 
HETATM    9  C16 UNL     1       4.028  57.530  -8.429  1.00  0.00     0.040 C 
HETATM   10  C17 UNL     1       4.838  56.558  -7.541  1.00  0.00     0.028 C 
HETATM   11  C18 UNL     1       5.618  57.070  -6.322  1.00  0.00     0.139 C 
HETATM   12  C19 UNL     1       6.872  56.162  -6.051  1.00  0.00     0.038 C 
HETATM   13  C20 UNL     1       7.869  56.715  -5.044  1.00  0.00    -0.014 C 
HETATM   14  C21 UNL     1       8.019  56.110  -3.849  1.00  0.00    -0.050 C 
HETATM   15  C22 UNL     1       7.018  55.091  -3.413  1.00  0.00     0.042 C 
HETATM   16  C23 UNL     1       7.067  54.002  -4.453  1.00  0.00     0.001 C 
HETATM   17  C24 UNL     1       8.419  53.245  -4.267  1.00  0.00     0.037 C 
HETATM   18  C25 UNL     1       9.765  54.059  -4.329  1.00  0.00     0.123 C 
HETATM   19  C26 UNL     1      10.890  52.987  -4.418  1.00  0.00     0.039 C 
HETATM   20  C27 UNL     1      12.369  53.451  -4.381  1.00  0.00     0.023 C 
HETATM   21  C29 UNL     1      12.720  54.468  -5.486  1.00  0.00     0.101 C 
HETATM   22  C30 UNL     1      12.320  55.801  -5.058  1.00  0.00    -0.101 C 
HETATM   23  C31 UNL     1      11.853  56.763  -4.519  1.00  0.00    -0.066 C 
HETATM   24  C32 UNL     1      11.195  57.755  -3.744  1.00  0.00     0.029 A 
HETATM   25  C33 UNL     1      11.754  59.043  -3.713  1.00  0.00     0.057 A 
HETATM   26  C34 UNL     1      11.133  60.064  -3.002  1.00  0.00     0.067 A 
HETATM   27  C35 UNL     1       9.956  59.822  -2.312  1.00  0.00     0.037 A 
HETATM   28  C36 UNL     1       9.408  58.537  -2.328  1.00  0.00     0.014 A 
HETATM   29  C37 UNL     1      10.013  57.471  -3.042  1.00  0.00    -0.006 A 
HETATM   30  C38 UNL     1       9.264  56.129  -3.013  1.00  0.00     0.185 C 
HETATM   31  O8  UNL     1      10.028  54.901  -3.181  1.00  0.00    -0.371 OA
HETATM   32  C39 UNL     1       6.865  54.562  -5.916  1.00  0.00     0.030 C 
HETATM   33  C40 UNL     1       5.900  53.754  -6.782  1.00  0.00    -0.054 A 
HETATM   34  C41 UNL     1       6.255  53.423  -8.100  1.00  0.00     0.141 A 
HETATM   35  C42 UNL     1       5.347  52.792  -8.959  1.00  0.00     0.014 A 
HETATM   36  C43 UNL     1       4.042  52.465  -8.543  1.00  0.00    -0.005 A 
HETATM   37  C44 UNL     1       3.711  52.753  -7.206  1.00  0.00     0.007 A 
HETATM   38  C45 UNL     1       4.626  53.374  -6.338  1.00  0.00     0.086 A 
ENDROOT
BRANCH   1  39
HETATM   39  N3  UNL     1       1.684  51.718  -8.912  1.00  0.00    -0.336 N 
HETATM   40  C1  UNL     1       0.534  51.432  -9.340  1.00  0.00     0.124 C 
HETATM   41  N1  UNL     1      -0.459  51.259  -8.430  1.00  0.00    -0.279 NA
HETATM   42  N2  UNL     1      -0.005  51.311 -10.571  1.00  0.00    -0.279 NA
HETATM   43  H1  UNL     1      -0.112  51.515  -7.510  1.00  0.00     0.126 HD
HETATM   44  H2  UNL     1      -1.274  51.813  -8.658  1.00  0.00     0.126 HD
HETATM   45  H3  UNL     1       0.621  51.309 -11.359  1.00  0.00     0.126 HD
HETATM   46  H4  UNL     1      -0.712  50.591 -10.636  1.00  0.00     0.126 HD
ATOM     47  H3  UNL     1       1.713  51.850  -7.901  1.00  0.00     0.165 HD
ENDBRANCH   1  39
BRANCH   1  48
HETATM   48  C3  UNL     1       3.564  50.565 -10.131  1.00  0.00     0.070 C 
BRANCH  48  49
HETATM   49  C4  UNL     1       4.377  50.586 -11.444  1.00  0.00     0.043 C 
BRANCH  49  50
HETATM   50  C5  UNL     1       3.780  49.907 -12.691  1.00  0.00     0.058 C 
HETATM   51  C6  UNL     1       2.898  48.676 -12.402  1.00  0.00     0.038 C 
HETATM   52  C7  UNL     1       1.641  48.814 -13.278  1.00  0.00     0.003 C 
HETATM   53  C8  UNL     1       1.942  49.947 -14.244  1.00  0.00     0.003 C 
HETATM   54  C9  UNL     1       2.819  50.870 -13.415  1.00  0.00     0.038 C 
BRANCH  50  55
HETATM   55  O1  UNL     1       4.810  49.590 -13.624  1.00  0.00    -0.390 OA
HETATM   56  H9  UNL     1       5.022  48.642 -13.524  1.00  0.00     0.210 HD
ENDBRANCH  50  55
ENDBRANCH  49  50
ENDBRANCH  48  49
ENDBRANCH   1  48
BRANCH  38  57
HETATM   57 NA1  UNL     1       6.519  53.760  -6.504  1.00  0.00    -0.383 Na
ATOM     58 2HA1 UNL     1       6.744  54.650  -6.061  1.00  0.00     0.091 HD
ATOM     59 1HA1 UNL     1       7.066  53.132  -5.915  1.00  0.00     0.091 HD
ENDBRANCH  38  57
BRANCH  11  60
HETATM   60  S1  UNL     1       4.518  57.349  -4.924  1.00  0.00     0.106 S 
HETATM   61  O3  UNL     1       4.131  56.012  -4.486  1.00  0.00    -0.595 OA
HETATM   62  O4  UNL     1       5.316  58.105  -3.962  1.00  0.00    -0.595 OA
HETATM   63  O5  UNL     1       3.414  58.125  -5.491  1.00  0.00    -0.595 OA
ENDBRANCH  11  60
BRANCH  20  64
HETATM   64  C28 UNL     1      13.299  52.227  -4.481  1.00  0.00     0.169 C 
BRANCH  64  65
HETATM   65  O6  UNL     1      14.637  52.581  -4.801  1.00  0.00    -0.400 OA
HETATM   66  H40 UNL     1      14.988  53.135  -4.089  1.00  0.00     0.209 HD
ENDBRANCH  64  65
ENDBRANCH  20  64
BRANCH  26  67
HETATM   67  O7  UNL     1      11.703  61.302  -3.026  1.00  0.00    -0.361 OA
HETATM   68  H44 UNL     1      11.093  61.915  -2.575  1.00  0.00     0.217 HD
ENDBRANCH  26  67
TORSDOF 10
ENDMDL
