MODEL 1
REMARK minimizedAffinity -6.02888775
REMARK CNNscore 0.462775052
REMARK CNNaffinity 4.93563318
REMARK  8 active torsions:
REMARK  status: ('A' for Active; 'I' for Inactive)
REMARK    1  A    between atoms: C4_4  and  C5_5 
REMARK    2  A    between atoms: C5_5  and  C6_6 
REMARK    3  A    between atoms: C6_6  and  C7_7 
REMARK    4  A    between atoms: C7_7  and  C9_9 
REMARK    5  A    between atoms: C21_21  and  C22_22 
REMARK    6  A    between atoms: C22_22  and  C23_23 
REMARK    7  A    between atoms: C23_23  and  C24_24 
REMARK    8  A    between atoms: C24_24  and  O1_25 
ROOT
HETATM    1  C9  UNL     1      -6.445  -9.832   9.797  1.00  0.00    -0.002 C 
HETATM    2  C10 UNL     1      -7.275  -9.222   8.621  1.00  0.00     0.006 C 
HETATM    3  C11 UNL     1      -8.717  -9.021   9.142  1.00  0.00     0.011 C 
HETATM    4  C12 UNL     1      -8.769  -9.837  10.448  1.00  0.00    -0.032 C 
HETATM    5  C13 UNL     1      -8.969 -11.323   9.995  1.00  0.00     0.016 C 
HETATM    6  C14 UNL     1      -9.853  -9.401  11.472  1.00  0.00     0.003 C 
HETATM    7  C15 UNL     1     -11.306  -9.423  10.945  1.00  0.00     0.010 C 
HETATM    8  C16 UNL     1     -12.346  -9.202  12.048  1.00  0.00     0.035 C 
HETATM    9  C17 UNL     1     -11.765  -8.427  13.210  1.00  0.00    -0.073 C 
HETATM   10  C18 UNL     1     -12.201  -7.186  13.552  1.00  0.00    -0.085 C 
HETATM   11  C19 UNL     1     -11.641  -6.353  14.679  1.00  0.00     0.043 C 
HETATM   12  C20 UNL     1     -13.323  -6.494  12.813  1.00  0.00     0.043 C 
HETATM   13  C21 UNL     1     -10.587  -9.150  13.905  1.00  0.00     0.023 C 
HETATM   14  C25 UNL     1      -9.724 -10.066  12.904  1.00  0.00    -0.032 C 
HETATM   15  C26 UNL     1     -10.217 -11.537  12.912  1.00  0.00     0.016 C 
HETATM   16  C27 UNL     1      -8.222 -10.090  13.375  1.00  0.00     0.011 C 
HETATM   17  C28 UNL     1      -7.149 -10.387  12.301  1.00  0.00     0.011 C 
HETATM   18  C29 UNL     1      -7.334  -9.524  11.042  1.00  0.00    -0.032 C 
HETATM   19  C30 UNL     1      -7.116  -8.039  11.466  1.00  0.00     0.016 C 
ENDROOT
BRANCH   1  20
HETATM   20  C7  UNL     1      -4.919  -9.510   9.725  1.00  0.00    -0.014 C 
HETATM   21  C8  UNL     1      -4.136  -9.600  11.039  1.00  0.00     0.010 C 
BRANCH  20  22
HETATM   22  C6  UNL     1      -4.233 -10.315   8.592  1.00  0.00     0.008 C 
BRANCH  22  23
HETATM   23  C5  UNL     1      -3.879  -9.507   7.331  1.00  0.00     0.028 C 
BRANCH  23  24
HETATM   24  C4  UNL     1      -4.621  -9.948   6.100  1.00  0.00    -0.025 C 
HETATM   25  C2  UNL     1      -4.142 -10.082   4.847  1.00  0.00    -0.091 C 
HETATM   26  C1  UNL     1      -5.030 -10.579   3.737  1.00  0.00     0.042 C 
HETATM   27  C3  UNL     1      -2.732  -9.780   4.425  1.00  0.00     0.042 C 
ENDBRANCH  23  24
ENDBRANCH  22  23
ENDBRANCH  20  22
ENDBRANCH   1  20
BRANCH  13  28
HETATM   28  C22 UNL     1     -11.130  -9.809  15.202  1.00  0.00     0.012 C 
BRANCH  28  29
HETATM   29  C23 UNL     1     -10.138  -9.841  16.369  1.00  0.00     0.027 C 
BRANCH  29  30
HETATM   30  C24 UNL     1     -10.475  -8.820  17.455  1.00  0.00     0.164 C 
BRANCH  30  31
HETATM   31  O1  UNL     1      -9.376  -7.953  17.701  1.00  0.00    -0.401 OA
HETATM   32  H42 UNL     1      -9.323  -7.327  16.959  1.00  0.00     0.209 HD
ENDBRANCH  30  31
ENDBRANCH  29  30
ENDBRANCH  28  29
ENDBRANCH  13  28
TORSDOF 8
ENDMDL
