MODEL 1
REMARK minimizedAffinity -8.75889206
REMARK  7 active torsions:
REMARK  status: ('A' for Active; 'I' for Inactive)
REMARK    1  A    between atoms: C2_2  and  C4_4 
REMARK    2  A    between atoms: C7_7  and  O1_9 
REMARK    3  A    between atoms: C9_10  and  C10_11 
REMARK    4  A    between atoms: C11_12  and  C12_13 
REMARK    5  A    between atoms: C14_15  and  C15_16 
REMARK    6  A    between atoms: C24_26  and  C26_28 
REMARK    7  A    between atoms: C29_32  and  O4_34 
ROOT
HETATM    1  C15 UNL     1       0.065   6.041  10.969  1.00  0.00     0.149 C 
HETATM    2  C16 UNL     1       1.356   5.802  11.752  1.00  0.00     0.054 C 
HETATM    3  C17 UNL     1       2.316   6.915  11.284  1.00  0.00     0.050 C 
HETATM    4  C18 UNL     1       1.259   8.040  11.123  1.00  0.00     0.272 C 
HETATM    5  O2  UNL     1       0.870   8.658  12.346  1.00  0.00    -0.360 OA
HETATM    6  C19 UNL     1       1.684   9.750  12.723  1.00  0.00     0.171 C 
HETATM    7  C20 UNL     1       2.799   9.306  13.654  1.00  0.00     0.027 C 
HETATM    8  C21 UNL     1       3.049   7.801  13.682  1.00  0.00     0.012 C 
HETATM    9  C22 UNL     1       3.461   7.145  12.345  1.00  0.00     0.032 C 
HETATM   10  C23 UNL     1       4.731   7.805  11.764  1.00  0.00    -0.066 C 
HETATM   11  C24 UNL     1       5.979   7.669  12.279  1.00  0.00    -0.021 C 
HETATM   12  C25 UNL     1       7.210   8.327  11.721  1.00  0.00     0.052 C 
HETATM   13  C27 UNL     1       4.480   8.602  10.508  1.00  0.00     0.038 C 
HETATM   14  C28 UNL     1       3.871   7.749   9.398  1.00  0.00     0.042 C 
HETATM   15  C29 UNL     1       2.996   6.570   9.890  1.00  0.00     0.067 C 
HETATM   16  C30 UNL     1       3.840   5.275   9.923  1.00  0.00     0.047 C 
HETATM   17  O5  UNL     1       0.067   7.425  10.610  1.00  0.00    -0.351 OA
ENDROOT
BRANCH   1  18
HETATM   18  C14 UNL     1      -1.173   5.671  11.750  1.00  0.00     0.011 C 
HETATM   19  C12 UNL     1      -1.755   4.459  11.883  1.00  0.00    -0.064 C 
HETATM   20  C13 UNL     1      -1.176   3.197  11.296  1.00  0.00     0.048 C 
BRANCH  19  21
HETATM   21  C11 UNL     1      -2.992   4.358  12.662  1.00  0.00     0.003 C 
HETATM   22  C10 UNL     1      -3.529   5.324  13.426  1.00  0.00    -0.018 C 
BRANCH  22  23
HETATM   23  C9  UNL     1      -4.799   5.282  14.269  1.00  0.00     0.050 C 
HETATM   24  C4  UNL     1      -6.151   5.238  13.494  1.00  0.00     0.024 C 
HETATM   25  C5  UNL     1      -6.457   6.727  13.261  1.00  0.00     0.013 C 
HETATM   26  C6  UNL     1      -5.909   7.483  14.471  1.00  0.00     0.039 C 
HETATM   27  C7  UNL     1      -4.970   6.515  15.211  1.00  0.00     0.062 C 
HETATM   28  C8  UNL     1      -3.680   7.204  15.660  1.00  0.00     0.046 C 
BRANCH  24  29
HETATM   29  C2  UNL     1      -7.236   4.420  14.201  1.00  0.00    -0.088 C 
HETATM   30  C1  UNL     1      -7.887   4.788  15.318  1.00  0.00     0.014 C 
HETATM   31  C3  UNL     1      -7.590   3.117  13.526  1.00  0.00     0.043 C 
ENDBRANCH  24  29
BRANCH  27  32
HETATM   32  O1  UNL     1      -5.618   6.070  16.414  1.00  0.00    -0.390 OA
HETATM   33  H14 UNL     1      -5.822   6.852  16.953  1.00  0.00     0.210 HD
ENDBRANCH  27  32
ENDBRANCH  22  23
ENDBRANCH  19  21
ENDBRANCH   1  18
BRANCH  15  34
HETATM   34  O4  UNL     1       2.017   6.342   8.870  1.00  0.00    -0.389 OA
HETATM   35  H44 UNL     1       2.474   6.162   8.031  1.00  0.00     0.210 HD
ENDBRANCH  15  34
BRANCH  11  36
HETATM   36  C26 UNL     1       6.266   6.830  13.483  1.00  0.00     0.265 C 
HETATM   37  O3  UNL     1       6.978   7.187  14.412  1.00  0.00    -0.302 OA
ENDBRANCH  11  36
TORSDOF 7
ENDMDL
