MODEL 1
REMARK minimizedAffinity -9.94082832
REMARK CNNscore 0.415438294
REMARK CNNaffinity 7.53156137
REMARK  13 active torsions:
REMARK  status: ('A' for Active; 'I' for Inactive)
REMARK    1  A    between atoms: C2_2  and  C3_3 
REMARK    2  A    between atoms: C2_2  and  C11_12 
REMARK    3  A    between atoms: C3_3  and  C4_4 
REMARK    4  A    between atoms: C4_4  and  C5_5 
REMARK    5  A    between atoms: C5_5  and  O1_7 
REMARK    6  A    between atoms: C5_5  and  C7_8 
REMARK    7  A    between atoms: C28_32  and  O5_33 
REMARK    8  A    between atoms: O5_33  and  C29_34 
REMARK    9  A    between atoms: C30_36  and  C31_37 
REMARK   10  A    between atoms: C31_37  and  O7_38 
REMARK   11  A    between atoms: C32_39  and  O8_40 
REMARK   12  A    between atoms: C33_41  and  O9_42 
REMARK   13  A    between atoms: C34_43  and  O10_44 
ROOT
HETATM    1  C11 UNL     1       0.475   7.428  12.947  1.00  0.00    -0.001 C 
HETATM    2  C12 UNL     1       0.257   6.767  11.559  1.00  0.00     0.007 C 
HETATM    3  C13 UNL     1      -1.210   6.302  11.499  1.00  0.00     0.024 C 
HETATM    4  C14 UNL     1      -1.836   6.801  12.788  1.00  0.00     0.092 C 
HETATM    5  C15 UNL     1      -2.472   8.219  12.625  1.00  0.00     0.272 C 
HETATM    6  O2  UNL     1      -2.125   9.109  11.870  1.00  0.00    -0.264 OA
HETATM    7  O3  UNL     1      -3.527   8.335  13.518  1.00  0.00    -0.305 OA
HETATM    8  C16 UNL     1      -3.589   7.135  14.314  1.00  0.00     0.113 C 
HETATM    9  C17 UNL     1      -2.540   7.337  15.471  1.00  0.00     0.043 C 
HETATM   10  C18 UNL     1      -1.113   7.684  15.016  1.00  0.00     0.014 C 
HETATM   11  C19 UNL     1      -0.665   6.818  13.818  1.00  0.00    -0.020 C 
HETATM   12  C20 UNL     1      -0.337   5.388  14.296  1.00  0.00     0.017 C 
HETATM   13  C21 UNL     1      -3.046   6.110  13.340  1.00  0.00     0.137 A 
HETATM   14  O4  UNL     1      -3.849   5.816  12.155  1.00  0.00    -0.364 OA
HETATM   15  C22 UNL     1      -3.778   4.791  13.114  1.00  0.00     0.162 A 
HETATM   16  C23 UNL     1      -5.151   4.559  13.685  1.00  0.00     0.041 C 
HETATM   17  C24 UNL     1      -5.891   5.912  13.901  1.00  0.00     0.009 C 
HETATM   18  C25 UNL     1      -7.441   5.763  14.158  1.00  0.00    -0.017 C 
HETATM   19  C26 UNL     1      -8.142   5.316  12.834  1.00  0.00     0.018 C 
HETATM   20  C27 UNL     1      -7.800   4.661  15.178  1.00  0.00     0.018 C 
HETATM   21  C28 UNL     1      -8.074   7.159  14.514  1.00  0.00     0.133 C 
HETATM   22  C35 UNL     1      -7.266   7.969  15.525  1.00  0.00     0.034 C 
HETATM   23  C36 UNL     1      -5.825   8.151  15.079  1.00  0.00     0.015 C 
HETATM   24  C37 UNL     1      -5.059   6.822  14.897  1.00  0.00    -0.004 C 
HETATM   25  C38 UNL     1      -4.940   6.155  16.302  1.00  0.00     0.019 C 
ENDROOT
BRANCH  21  26
HETATM   26  O5  UNL     1      -9.411   6.972  14.996  1.00  0.00    -0.352 OA
BRANCH  26  27
HETATM   27  C29 UNL     1     -10.425   7.610  14.208  1.00  0.00     0.292 C 
HETATM   28  O6  UNL     1     -10.271   9.031  14.147  1.00  0.00    -0.348 OA
HETATM   29  C30 UNL     1     -10.979   9.798  15.142  1.00  0.00     0.179 C 
HETATM   30  C32 UNL     1     -12.488   9.481  15.207  1.00  0.00     0.180 C 
HETATM   31  C33 UNL     1     -12.842   8.208  14.435  1.00  0.00     0.183 C 
HETATM   32  C34 UNL     1     -11.799   7.143  14.739  1.00  0.00     0.204 C 
BRANCH  29  33
HETATM   33  C31 UNL     1     -10.243   9.748  16.494  1.00  0.00     0.198 C 
BRANCH  33  34
HETATM   34  O7  UNL     1     -10.447   8.473  17.115  1.00  0.00    -0.398 OA
HETATM   35  H49 UNL     1     -11.316   8.155  16.810  1.00  0.00     0.209 HD
ENDBRANCH  33  34
ENDBRANCH  29  33
BRANCH  30  36
HETATM   36  O8  UNL     1     -12.939   9.339  16.560  1.00  0.00    -0.390 OA
HETATM   37  H51 UNL     1     -13.797   8.874  16.486  1.00  0.00     0.210 HD
ENDBRANCH  30  36
BRANCH  31  38
HETATM   38  O9  UNL     1     -14.135   7.751  14.862  1.00  0.00    -0.390 OA
HETATM   39  H53 UNL     1     -14.186   6.834  14.505  1.00  0.00     0.210 HD
ENDBRANCH  31  38
BRANCH  32  40
HETATM   40  O10 UNL     1     -12.213   5.903  14.133  1.00  0.00    -0.388 OA
HETATM   41  H55 UNL     1     -11.549   5.235  14.399  1.00  0.00     0.210 HD
ENDBRANCH  32  40
ENDBRANCH  26  27
ENDBRANCH  21  26
BRANCH   1  42
HETATM   42  C2  UNL     1       1.970   7.469  13.386  1.00  0.00    -0.014 C 
HETATM   43  C1  UNL     1       2.404   8.590  14.338  1.00  0.00     0.010 C 
BRANCH  42  44
HETATM   44  C3  UNL     1       2.975   7.250  12.215  1.00  0.00     0.007 C 
BRANCH  44  45
HETATM   45  C4  UNL     1       2.370   6.838  10.859  1.00  0.00     0.038 C 
BRANCH  45  46
HETATM   46  C5  UNL     1       3.276   7.055   9.608  1.00  0.00     0.061 C 
HETATM   47  C6  UNL     1       4.496   7.904  10.021  1.00  0.00     0.046 C 
BRANCH  46  48
HETATM   48  O1  UNL     1       3.770   5.774   9.202  1.00  0.00    -0.389 OA
HETATM   49  H12 UNL     1       4.503   5.918   8.576  1.00  0.00     0.210 HD
ENDBRANCH  46  48
BRANCH  46  50
HETATM   50  C7  UNL     1       2.472   7.685   8.388  1.00  0.00    -0.021 C 
HETATM   51  C8  UNL     1       1.045   8.119   8.809  1.00  0.00     0.017 C 
HETATM   52  C9  UNL     1       2.288   6.665   7.236  1.00  0.00     0.017 C 
HETATM   53  C10 UNL     1       3.183   8.923   7.805  1.00  0.00     0.017 C 
ENDBRANCH  46  50
ENDBRANCH  45  46
ENDBRANCH  44  45
ENDBRANCH  42  44
ENDBRANCH   1  42
TORSDOF 13
ENDMDL
