MODEL 1
REMARK minimizedAffinity -10.1300354
REMARK CNNscore 0.470788807
REMARK CNNaffinity 7.63776636
REMARK  12 active torsions:
REMARK  status: ('A' for Active; 'I' for Inactive)
REMARK    1  A    between atoms: C3_3  and  O1_4 
REMARK    2  A    between atoms: N1_14  and  O2_16 
REMARK    3  A    between atoms: O2_16  and  C13_17 
REMARK    4  A    between atoms: C13_17  and  C14_18 
REMARK       I    between atoms: C14_18  and  N2_20 
REMARK    5  A    between atoms: N2_20  and  C15_21 
REMARK    6  A    between atoms: C15_21  and  C16_22 
REMARK    7  A    between atoms: C15_21  and  C27_38 
REMARK       I    between atoms: C16_22  and  N3_24 
REMARK    8  A    between atoms: N3_24  and  C17_25 
REMARK    9  A    between atoms: C17_25  and  C18_26 
REMARK   10  A    between atoms: C17_25  and  C20_30 
REMARK   11  A    between atoms: C18_26  and  C19_27 
REMARK   12  A    between atoms: C19_27  and  O6_29 
ROOT
HETATM    1  C1  UNL     1      -3.432  50.265 -28.075  1.00  0.00     0.015 C 
HETATM    2  C2  UNL     1      -2.882  51.022 -27.319  1.00  0.00    -0.078 C 
HETATM    3  C3  UNL     1      -2.211  51.962 -26.386  1.00  0.00     0.128 C 
HETATM    4  C4  UNL     1      -3.202  52.388 -25.300  1.00  0.00     0.052 C 
HETATM    5  C5  UNL     1      -3.134  51.281 -24.253  1.00  0.00     0.010 C 
HETATM    6  C6  UNL     1      -1.733  50.637 -24.379  1.00  0.00     0.002 C 
HETATM    7  C7  UNL     1      -0.871  50.701 -23.102  1.00  0.00    -0.004 C 
HETATM    8  C8  UNL     1      -1.454  49.872 -21.956  1.00  0.00     0.010 C 
HETATM    9  C9  UNL     1      -0.466  49.817 -20.798  1.00  0.00     0.035 C 
HETATM   10  C10 UNL     1      -0.039  51.187 -20.321  1.00  0.00    -0.069 C 
HETATM   11  C11 UNL     1       0.057  51.420 -18.999  1.00  0.00     0.030 C 
HETATM   12  C12 UNL     1       0.659  52.675 -18.460  1.00  0.00     0.032 C 
HETATM   13  N1  UNL     1       1.029  52.871 -17.231  1.00  0.00    -0.271 N 
ATOM     14  H1  UNL     1       1.475  53.727 -16.901  1.00  0.00     0.194 HD
HETATM   15  C30 UNL     1       0.962  53.793 -19.435  1.00  0.00     0.060 C 
HETATM   16  C31 UNL     1       0.217  53.641 -20.750  1.00  0.00     0.020 C 
HETATM   17  C32 UNL     1       0.347  52.227 -21.384  1.00  0.00    -0.016 C 
HETATM   18  C33 UNL     1       1.813  51.961 -21.804  1.00  0.00     0.020 C 
HETATM   19  C34 UNL     1      -0.634  52.154 -22.617  1.00  0.00     0.002 C 
HETATM   20  C35 UNL     1      -0.274  53.096 -23.789  1.00  0.00     0.007 C 
HETATM   21  C36 UNL     1       0.038  52.368 -25.095  1.00  0.00     0.014 C 
HETATM   22  C37 UNL     1      -1.027  51.331 -25.582  1.00  0.00     0.003 C 
HETATM   23  C38 UNL     1      -0.241  50.293 -26.424  1.00  0.00     0.020 C 
ENDROOT
BRANCH   3  24
HETATM   24  O1  UNL     1      -1.800  53.101 -27.129  1.00  0.00    -0.377 OA
HETATM   25  H2  UNL     1      -2.566  53.392 -27.651  1.00  0.00     0.211 HD
ENDBRANCH   3  24
BRANCH  13  26
HETATM   26  O2  UNL     1       0.745  51.772 -16.409  1.00  0.00    -0.271 OA
BRANCH  26  27
HETATM   27  C13 UNL     1       1.522  51.868 -15.228  1.00  0.00     0.303 C 
BRANCH  27  28
HETATM   28  C14 UNL     1       0.821  51.486 -13.921  1.00  0.00     0.244 C 
HETATM   29  O3  UNL     1       0.403  50.362 -13.652  1.00  0.00    -0.271 OA
HETATM   30  N2  UNL     1       0.757  52.536 -13.020  1.00  0.00    -0.346 N 
HETATM   31  H16 UNL     1       1.181  53.428 -13.255  1.00  0.00     0.163 HD
BRANCH  30  32
HETATM   32  C15 UNL     1       0.116  52.416 -11.698  1.00  0.00     0.180 C 
BRANCH  32  33
HETATM   33  C16 UNL     1       1.045  53.022 -10.601  1.00  0.00     0.241 C 
HETATM   34  O4  UNL     1       0.634  53.438  -9.522  1.00  0.00    -0.271 OA
HETATM   35  N3  UNL     1       2.387  53.024 -10.924  1.00  0.00    -0.354 N 
HETATM   36  H18 UNL     1       2.644  52.450 -11.716  1.00  0.00     0.162 HD
BRANCH  35  37
HETATM   37  C17 UNL     1       3.469  53.382  -9.999  1.00  0.00     0.098 C 
BRANCH  37  38
HETATM   38  C18 UNL     1       4.498  52.237  -9.924  1.00  0.00     0.135 C 
BRANCH  38  39
HETATM   39  C19 UNL     1       4.036  50.977 -10.593  1.00  0.00     0.141 C 
HETATM   40  O5  UNL     1       3.707  50.829 -11.758  1.00  0.00    -0.650 OA
BRANCH  39  41
HETATM   41  O6  UNL     1       4.051  49.920  -9.754  1.00  0.00    -0.776 OA
HETATM   42  H22 UNL     1       3.759  49.171 -10.311  1.00  0.00     0.167 HD
ENDBRANCH  39  41
ENDBRANCH  38  39
ENDBRANCH  37  38
BRANCH  37  43
HETATM   43  C20 UNL     1       4.112  54.754 -10.381  1.00  0.00     0.014 C 
HETATM   44  C21 UNL     1       5.495  54.978  -9.762  1.00  0.00     0.033 C 
HETATM   45  C22 UNL     1       5.435  55.207  -8.254  1.00  0.00     0.169 C 
HETATM   46  O7  UNL     1       4.108  55.401  -7.772  1.00  0.00    -0.381 OA
HETATM   47  C23 UNL     1       3.303  56.334  -8.498  1.00  0.00     0.054 C 
HETATM   48  C24 UNL     1       3.819  57.764  -8.278  1.00  0.00     0.045 C 
HETATM   49  C25 UNL     1       1.899  56.227  -7.887  1.00  0.00     0.045 C 
HETATM   50  C26 UNL     1       3.256  55.984 -10.001  1.00  0.00     0.044 C 
ENDBRANCH  37  43
ENDBRANCH  35  37
ENDBRANCH  32  33
BRANCH  32  51
HETATM   51  C27 UNL     1      -1.283  53.087 -11.727  1.00  0.00     0.009 C 
HETATM   52  C28 UNL     1      -1.438  54.189 -10.670  1.00  0.00     0.012 C 
HETATM   53  C29 UNL     1      -2.400  52.049 -11.509  1.00  0.00     0.012 C 
ENDBRANCH  32  51
ENDBRANCH  30  32
ENDBRANCH  27  28
ENDBRANCH  26  27
ENDBRANCH  13  26
TORSDOF 12
ENDMDL
