MODEL 1
REMARK minimizedAffinity -6.99350929
REMARK CNNscore 0.678838432
REMARK CNNaffinity 5.3685956
REMARK  2 active torsions:
REMARK  status: ('A' for Active; 'I' for Inactive)
REMARK       I    between atoms: C1_2  and  N1_3 
REMARK    1  A    between atoms: C1_2  and  C14_18 
REMARK    2  A    between atoms: N1_3  and  C2_4 
ROOT
HETATM    1  C2  UNL     1      -9.465  -2.818  -5.094  1.00  0.00     0.135 C 
HETATM    2  C3  UNL     1      -8.388  -1.709  -5.010  1.00  0.00     0.032 C 
HETATM    3  C4  UNL     1      -8.816  -0.413  -5.722  1.00  0.00     0.007 C 
HETATM    4  C5  UNL     1      -9.087  -0.643  -7.222  1.00  0.00     0.042 C 
HETATM    5  C6  UNL     1      -9.932  -1.855  -7.426  1.00  0.00    -0.021 A 
HETATM    6  C7  UNL     1     -10.075  -2.826  -6.455  1.00  0.00     0.040 A 
HETATM    7  N2  UNL     1     -10.943  -3.773  -6.923  1.00  0.00    -0.355 N 
HETATM    8  C8  UNL     1     -11.322  -3.466  -8.212  1.00  0.00     0.065 A 
HETATM    9  C9  UNL     1     -12.165  -4.146  -9.099  1.00  0.00     0.061 A 
HETATM   10 CL1  UNL     1     -12.912  -5.629  -8.657  1.00  0.00    -0.082 Cl
HETATM   11  C10 UNL     1     -12.386  -3.591 -10.361  1.00  0.00     0.026 A 
HETATM   12  C11 UNL     1     -11.782  -2.388 -10.724  1.00  0.00     0.003 A 
HETATM   13  C12 UNL     1     -10.941  -1.713  -9.830  1.00  0.00     0.014 A 
HETATM   14  C13 UNL     1     -10.703  -2.259  -8.552  1.00  0.00     0.001 A 
HETATM   15  H9  UNL     1     -11.260  -4.587  -6.408  1.00  0.00     0.166 HD
ENDROOT
BRANCH   1  16
HETATM   16  N1  UNL     1      -8.880  -4.119  -4.865  1.00  0.00    -0.347 N 
HETATM   17  C1  UNL     1      -9.640  -5.177  -4.419  1.00  0.00     0.252 C 
HETATM   18  O1  UNL     1     -10.861  -5.134  -4.319  1.00  0.00    -0.268 OA
HETATM   19  H1  UNL     1      -7.873  -4.192  -4.904  1.00  0.00     0.163 HD
BRANCH  17  20
HETATM   20  C14 UNL     1      -8.904  -6.429  -4.084  1.00  0.00     0.034 A 
HETATM   21  C15 UNL     1      -8.393  -7.189  -5.142  1.00  0.00     0.018 A 
HETATM   22  C16 UNL     1      -7.687  -8.374  -4.901  1.00  0.00     0.015 A 
HETATM   23  C17 UNL     1      -7.502  -8.807  -3.574  1.00  0.00    -0.008 A 
HETATM   24  C18 UNL     1      -6.858  -9.929  -2.983  1.00  0.00     0.030 A 
HETATM   25  C20 UNL     1      -8.036  -8.045  -2.534  1.00  0.00     0.043 A 
HETATM   26  C19 UNL     1      -7.014  -9.832  -1.620  1.00  0.00     0.089 A 
HETATM   27  N3  UNL     1      -7.730  -8.694  -1.359  1.00  0.00    -0.365 N 
HETATM   28  H17 UNL     1      -7.997  -8.375  -0.438  1.00  0.00     0.165 HD
HETATM   29  C21 UNL     1      -8.745  -6.854  -2.754  1.00  0.00     0.047 A 
ENDBRANCH  17  20
ENDBRANCH   1  16
TORSDOF 2
ENDMDL
