MODEL 1
REMARK minimizedAffinity -10.939765
REMARK CNNscore 0.118901066
REMARK CNNaffinity 7.15412664
REMARK  14 active torsions:
REMARK  status: ('A' for Active; 'I' for Inactive)
REMARK       I    between atoms: N1_1  and  C1_2 
REMARK       I    between atoms: C1_2  and  N2_3 
REMARK    1  A    between atoms: N3_4  and  C2_6 
REMARK    2  A    between atoms: C2_6  and  C3_7 
REMARK    3  A    between atoms: C3_7  and  C4_8 
REMARK    4  A    between atoms: C4_8  and  C5_9 
REMARK    5  A    between atoms: C4_8  and  C6_11 
REMARK    6  A    between atoms: C5_9  and  O1_10 
REMARK    7  A    between atoms: C6_11  and  C7_12 
REMARK    8  A    between atoms: C21_27  and  S1_28 
REMARK    9  A    between atoms: C22_32  and  C23_33 
REMARK   10  A    between atoms: C24_34  and  C25_35 
REMARK   11  A    between atoms: C25_35  and  O6_36 
REMARK   12  A    between atoms: C25_35  and  C26_37 
REMARK   13  A    between atoms: C29_40  and  O7_41 
REMARK   14  A    between atoms: C33_45  and  NA1_51 
ROOT
HETATM    1  C2  UNL     1       1.762   6.757  11.122  1.00  0.00     0.171 C 
HETATM    2  O2  UNL     1       1.878   8.217  11.384  1.00  0.00    -0.316 OA
HETATM    3  C13 UNL     1       0.887   8.834  12.099  1.00  0.00     0.072 C 
HETATM    4  C14 UNL     1       1.221   9.301  13.369  1.00  0.00     0.037 C 
HETATM    5  C15 UNL     1       0.214   9.724  14.238  1.00  0.00     0.010 C 
HETATM    6  C16 UNL     1      -1.125   9.715  13.828  1.00  0.00    -0.058 C 
HETATM    7  C17 UNL     1      -1.430   9.375  12.504  1.00  0.00     0.010 C 
HETATM    8  C18 UNL     1      -0.424   8.952  11.633  1.00  0.00     0.037 C 
HETATM    9  C19 UNL     1      -2.232  10.070  14.789  1.00  0.00     0.040 C 
HETATM   10  C20 UNL     1      -2.516   9.011  15.881  1.00  0.00     0.028 C 
HETATM   11  C21 UNL     1      -3.721   8.036  15.679  1.00  0.00     0.138 C 
HETATM   12  C22 UNL     1      -3.447   6.851  14.705  1.00  0.00     0.031 C 
HETATM   13  C32 UNL     1      -2.268   5.927  15.168  1.00  0.00     0.041 C 
HETATM   14  C33 UNL     1      -1.173   5.775  14.132  1.00  0.00     0.029 C 
HETATM   15  C34 UNL     1      -1.472   5.499  12.794  1.00  0.00     0.137 C 
HETATM   16  C35 UNL     1      -0.503   5.663  11.802  1.00  0.00     0.012 C 
HETATM   17  C36 UNL     1       0.790   6.096  12.145  1.00  0.00    -0.003 C 
HETATM   18  C37 UNL     1       1.140   6.103  13.509  1.00  0.00     0.010 C 
HETATM   19  C38 UNL     1       0.164   5.965  14.493  1.00  0.00     0.001 C 
ENDROOT
BRANCH   1  20
HETATM   20  N3  UNL     1       3.096   6.121  11.194  1.00  0.00    -0.336 N 
HETATM   21  C1  UNL     1       4.187   6.742  11.414  1.00  0.00     0.124 C 
HETATM   22  N1  UNL     1       5.329   6.026  11.556  1.00  0.00    -0.279 NA
HETATM   23  N2  UNL     1       4.470   8.052  11.593  1.00  0.00    -0.279 NA
HETATM   24  H1  UNL     1       5.857   6.330  12.368  1.00  0.00     0.126 HD
HETATM   25  H2  UNL     1       5.084   5.046  11.650  1.00  0.00     0.126 HD
HETATM   26  H3  UNL     1       5.370   8.299  11.201  1.00  0.00     0.126 HD
HETATM   27  H4  UNL     1       3.756   8.686  11.233  1.00  0.00     0.126 HD
ATOM     28  H3  UNL     1       3.146   5.112  11.057  1.00  0.00     0.165 HD
ENDBRANCH   1  20
BRANCH   1  29
HETATM   29  C3  UNL     1       1.292   6.664   9.622  1.00  0.00     0.074 C 
BRANCH  29  30
HETATM   30  C4  UNL     1       2.340   7.061   8.538  1.00  0.00     0.018 C 
BRANCH  30  31
HETATM   31  C5  UNL     1       2.115   8.530   8.141  1.00  0.00     0.169 C 
BRANCH  31  32
HETATM   32  O1  UNL     1       0.785   8.941   8.439  1.00  0.00    -0.400 OA
HETATM   33  H10 UNL     1       0.767   9.909   8.359  1.00  0.00     0.209 HD
ENDBRANCH  31  32
ENDBRANCH  30  31
BRANCH  30  34
HETATM   34  C6  UNL     1       2.312   6.136   7.308  1.00  0.00     0.045 C 
BRANCH  34  35
HETATM   35  C7  UNL     1       3.214   4.931   7.440  1.00  0.00    -0.058 A 
HETATM   36  C8  UNL     1       3.768   4.602   8.686  1.00  0.00     0.007 A 
HETATM   37  C9  UNL     1       4.587   3.482   8.824  1.00  0.00     0.001 A 
HETATM   38  C10 UNL     1       4.870   2.688   7.715  1.00  0.00     0.000 A 
HETATM   39  C11 UNL     1       4.354   3.025   6.465  1.00  0.00     0.001 A 
HETATM   40  C12 UNL     1       3.531   4.142   6.325  1.00  0.00     0.007 A 
ENDBRANCH  34  35
ENDBRANCH  30  34
ENDBRANCH  29  30
ENDBRANCH   1  29
BRANCH  14  41
HETATM   41 NA1  UNL     1      -1.193   6.998  12.364  1.00  0.00    -0.379 Na
ATOM     42 2HA1 UNL     1      -1.330   7.991  12.178  1.00  0.00     0.091 HD
ATOM     43 1HA1 UNL     1      -0.485   7.318  11.703  1.00  0.00     0.091 HD
ENDBRANCH  14  41
BRANCH  12  44
HETATM   44  C23 UNL     1      -4.627   5.936  14.388  1.00  0.00    -0.022 C 
HETATM   45  C24 UNL     1      -5.726   6.261  13.681  1.00  0.00     0.006 C 
BRANCH  45  46
HETATM   46  C25 UNL     1      -6.884   5.333  13.442  1.00  0.00     0.173 C 
BRANCH  46  47
HETATM   47  O6  UNL     1      -7.865   6.051  12.677  1.00  0.00    -0.387 OA
HETATM   48  H31 UNL     1      -7.575   6.981  12.652  1.00  0.00     0.210 HD
ENDBRANCH  46  47
BRANCH  46  49
HETATM   49  C26 UNL     1      -6.504   4.027  12.763  1.00  0.00    -0.026 A 
HETATM   50  C27 UNL     1      -7.263   2.848  12.893  1.00  0.00     0.013 A 
HETATM   51  C28 UNL     1      -6.869   1.670  12.247  1.00  0.00     0.037 A 
HETATM   52  C29 UNL     1      -5.713   1.660  11.472  1.00  0.00     0.065 A 
HETATM   53  C30 UNL     1      -4.942   2.808  11.329  1.00  0.00     0.037 A 
HETATM   54  C31 UNL     1      -5.334   3.984  11.976  1.00  0.00     0.013 A 
BRANCH  52  55
HETATM   55  O7  UNL     1      -5.366   0.497  10.844  1.00  0.00    -0.361 OA
HETATM   56  H34 UNL     1      -4.569   0.678  10.317  1.00  0.00     0.217 HD
ENDBRANCH  52  55
ENDBRANCH  46  49
ENDBRANCH  45  46
ENDBRANCH  12  44
BRANCH  11  57
HETATM   57  S1  UNL     1      -5.236   8.965  15.271  1.00  0.00     0.106 S 
HETATM   58  O3  UNL     1      -5.054  10.261  15.929  1.00  0.00    -0.595 OA
HETATM   59  O4  UNL     1      -5.243   9.026  13.810  1.00  0.00    -0.595 OA
HETATM   60  O5  UNL     1      -6.317   8.175  15.855  1.00  0.00    -0.595 OA
ENDBRANCH  11  57
TORSDOF 14
ENDMDL
