MODEL 1
REMARK minimizedAffinity -6.69846869
REMARK CNNscore 0.591314852
REMARK CNNaffinity 6.12248564
REMARK  12 active torsions:
REMARK  status: ('A' for Active; 'I' for Inactive)
REMARK    1  A    between atoms: C4_4  and  C5_5 
REMARK    2  A    between atoms: C5_5  and  C6_6 
REMARK    3  A    between atoms: C6_6  and  C7_7 
REMARK    4  A    between atoms: C9_9  and  C10_10 
REMARK    5  A    between atoms: C11_11  and  C12_12 
REMARK    6  A    between atoms: C14_14  and  C15_15 
REMARK    7  A    between atoms: C19_20  and  C20_21 
REMARK    8  A    between atoms: C20_21  and  C21_22 
REMARK    9  A    between atoms: C21_22  and  C22_23 
REMARK   10  A    between atoms: C22_23  and  O2_24 
REMARK   11  A    between atoms: C24_26  and  C26_28 
REMARK   12  A    between atoms: C29_32  and  O4_34 
ROOT
HETATM    1  C15 UNL     1     -10.435  45.748 -29.055  1.00  0.00     0.145 C 
HETATM    2  C16 UNL     1     -10.097  47.098 -29.691  1.00  0.00     0.051 C 
HETATM    3  C17 UNL     1      -8.625  46.988 -30.124  1.00  0.00     0.022 C 
HETATM    4  C18 UNL     1      -8.135  46.018 -29.037  1.00  0.00     0.181 C 
HETATM    5  O1  UNL     1      -9.186  45.061 -28.851  1.00  0.00    -0.381 OA
HETATM    6  C19 UNL     1      -8.432  46.388 -31.579  1.00  0.00     0.029 C 
HETATM    7  C23 UNL     1      -6.919  46.238 -31.862  1.00  0.00    -0.066 C 
HETATM    8  C24 UNL     1      -6.161  45.119 -31.997  1.00  0.00    -0.021 C 
HETATM    9  C25 UNL     1      -4.714  45.128 -32.427  1.00  0.00     0.052 C 
HETATM   10  C27 UNL     1      -6.275  47.619 -31.901  1.00  0.00     0.038 C 
HETATM   11  C28 UNL     1      -6.424  48.276 -30.528  1.00  0.00     0.042 C 
HETATM   12  C29 UNL     1      -7.888  48.380 -30.049  1.00  0.00     0.065 C 
HETATM   13  C30 UNL     1      -8.619  49.493 -30.830  1.00  0.00     0.047 C 
ENDROOT
BRANCH   6  14
HETATM   14  C20 UNL     1      -9.392  45.254 -32.022  1.00  0.00     0.012 C 
BRANCH  14  15
HETATM   15  C21 UNL     1     -10.409  45.617 -33.121  1.00  0.00     0.027 C 
BRANCH  15  16
HETATM   16  C22 UNL     1     -11.127  44.431 -33.758  1.00  0.00     0.164 C 
BRANCH  16  17
HETATM   17  O2  UNL     1     -12.449  44.797 -34.123  1.00  0.00    -0.401 OA
HETATM   18  H34 UNL     1     -12.912  43.978 -34.374  1.00  0.00     0.209 HD
ENDBRANCH  16  17
ENDBRANCH  15  16
ENDBRANCH  14  15
ENDBRANCH   6  14
BRANCH  12  19
HETATM   19  O4  UNL     1      -7.851  48.820 -28.682  1.00  0.00    -0.389 OA
HETATM   20  H46 UNL     1      -7.460  49.712 -28.651  1.00  0.00     0.210 HD
ENDBRANCH  12  19
BRANCH   1  21
HETATM   21  C14 UNL     1     -11.124  45.875 -27.725  1.00  0.00     0.011 C 
HETATM   22  C12 UNL     1     -12.449  46.001 -27.498  1.00  0.00    -0.063 C 
HETATM   23  C13 UNL     1     -13.476  46.067 -28.600  1.00  0.00     0.048 C 
BRANCH  22  24
HETATM   24  C11 UNL     1     -12.916  46.100 -26.114  1.00  0.00     0.006 C 
HETATM   25  C10 UNL     1     -13.959  46.822 -25.671  1.00  0.00     0.001 C 
BRANCH  25  26
HETATM   26  C9  UNL     1     -14.335  46.864 -24.272  1.00  0.00     0.002 C 
HETATM   27  C7  UNL     1     -15.583  46.916 -23.763  1.00  0.00    -0.084 C 
HETATM   28  C8  UNL     1     -16.860  46.904 -24.561  1.00  0.00     0.043 C 
BRANCH  27  29
HETATM   29  C6  UNL     1     -15.776  46.975 -22.256  1.00  0.00     0.037 C 
BRANCH  29  30
HETATM   30  C5  UNL     1     -14.455  47.185 -21.509  1.00  0.00     0.031 C 
BRANCH  30  31
HETATM   31  C4  UNL     1     -14.615  48.149 -20.364  1.00  0.00    -0.024 C 
HETATM   32  C2  UNL     1     -15.120  47.888 -19.142  1.00  0.00    -0.091 C 
HETATM   33  C1  UNL     1     -15.175  48.961 -18.086  1.00  0.00     0.042 C 
HETATM   34  C3  UNL     1     -15.679  46.561 -18.707  1.00  0.00     0.042 C 
ENDBRANCH  30  31
ENDBRANCH  29  30
ENDBRANCH  27  29
ENDBRANCH  25  26
ENDBRANCH  22  24
ENDBRANCH   1  21
BRANCH   8  35
HETATM   35  C26 UNL     1      -6.658  43.751 -31.662  1.00  0.00     0.265 C 
HETATM   36  O3  UNL     1      -6.190  42.731 -32.155  1.00  0.00    -0.302 OA
ENDBRANCH   8  35
TORSDOF 12
ENDMDL
