MODEL 1
REMARK minimizedAffinity -10.7374649
REMARK  5 active torsions:
REMARK  status: ('A' for Active; 'I' for Inactive)
REMARK    1  A    between atoms: N1_2  and  C2_3 
REMARK    2  A    between atoms: C4_5  and  N4_34 
REMARK    3  A    between atoms: C5_7  and  N2_12 
REMARK    4  A    between atoms: C7_9  and  O2_10 
REMARK    5  A    between atoms: C27_35  and  C28_36 
ROOT
HETATM    1  C2  UNL     1      10.397  -4.460  33.222  1.00  0.00     0.257 C 
HETATM    2  C3  UNL     1       9.532  -5.621  32.740  1.00  0.00     0.092 C 
HETATM    3  C4  UNL     1       9.571  -5.795  31.220  1.00  0.00     0.234 C 
HETATM    4  O1  UNL     1      10.485  -4.949  30.537  1.00  0.00    -0.333 OA
HETATM    5  C5  UNL     1      10.516  -3.538  30.870  1.00  0.00     0.168 C 
HETATM    6  C6  UNL     1      12.010  -3.239  30.620  1.00  0.00     0.074 C 
HETATM    7  C7  UNL     1      10.082  -3.233  32.340  1.00  0.00     0.209 C 
ENDROOT
BRANCH   1   8
HETATM    8  N1  UNL     1      10.134  -4.161  34.646  1.00  0.00     0.086 N 
HETATM    9  C1  UNL     1       8.773  -4.491  35.055  1.00  0.00     0.307 C 
HETATM   10  H4  UNL     1      10.781  -4.732  35.200  1.00  0.00     0.316 HD
ENDBRANCH   1   8
BRANCH   7  11
HETATM   11  O2  UNL     1      10.769  -2.081  32.870  1.00  0.00    -0.384 OA
HETATM   12  C8  UNL     1      11.922  -2.435  33.629  1.00  0.00     0.202 C 
ENDBRANCH   7  11
BRANCH   3  13
HETATM   13  N4  UNL     1       8.260  -5.750  30.578  1.00  0.00    -0.316 N 
HETATM   14  C26 UNL     1       7.313  -4.761  30.791  1.00  0.00     0.048 A 
HETATM   15  C21 UNL     1       6.157  -5.130  30.085  1.00  0.00     0.004 A 
HETATM   16  C25 UNL     1       7.374  -3.580  31.553  1.00  0.00     0.030 A 
HETATM   17  C20 UNL     1       6.433  -6.369  29.430  1.00  0.00     0.022 A 
HETATM   18  C22 UNL     1       5.035  -4.277  30.154  1.00  0.00     0.014 A 
HETATM   19  C19 UNL     1       5.782  -7.293  28.605  1.00  0.00     0.062 A 
HETATM   20  C27 UNL     1       7.744  -6.692  29.743  1.00  0.00     0.077 A 
HETATM   21  C16 UNL     1       6.388  -8.468  28.099  1.00  0.00     0.062 A 
HETATM   22  C18 UNL     1       4.412  -7.263  28.093  1.00  0.00     0.260 A 
HETATM   23  C15 UNL     1       7.716  -8.843  28.352  1.00  0.00     0.022 A 
HETATM   24  C17 UNL     1       5.380  -9.142  27.278  1.00  0.00     0.260 A 
HETATM   25  C14 UNL     1       8.628  -9.871  27.983  1.00  0.00     0.004 A 
HETATM   26  C28 UNL     1       8.421  -7.984  29.178  1.00  0.00     0.078 A 
HETATM   27  C9  UNL     1       9.873  -9.575  28.573  1.00  0.00     0.049 A 
HETATM   28  C13 UNL     1       8.522 -11.015  27.158  1.00  0.00     0.014 A 
HETATM   29  N2  UNL     1       9.701  -8.443  29.368  1.00  0.00    -0.308 N 
HETATM   30  C10 UNL     1      10.999 -10.375  28.293  1.00  0.00     0.030 A 
HETATM   31  C11 UNL     1      10.862 -11.495  27.468  1.00  0.00     0.002 A 
HETATM   32  C12 UNL     1       9.636 -11.820  26.913  1.00  0.00     0.001 A 
HETATM   33  O3  UNL     1       5.502 -10.180  26.659  1.00  0.00    -0.267 OA
HETATM   34  N3  UNL     1       4.257  -8.378  27.333  1.00  0.00    -0.289 N 
HETATM   35  H20 UNL     1       3.404  -8.609  26.852  1.00  0.00     0.172 HD
HETATM   36  O4  UNL     1       3.567  -6.416  28.295  1.00  0.00    -0.267 OA
HETATM   37  C23 UNL     1       5.090  -3.100  30.908  1.00  0.00     0.001 A 
HETATM   38  C24 UNL     1       6.246  -2.758  31.597  1.00  0.00     0.002 A 
ENDBRANCH   3  13
TORSDOF 5
ENDMDL
