MODEL 1
REMARK minimizedAffinity -10.5284472
REMARK  9 active torsions:
REMARK  status: ('A' for Active; 'I' for Inactive)
REMARK    1  A    between atoms: C2_2  and  C4_4 
REMARK    2  A    between atoms: C4_4  and  O1_5 
REMARK    3  A    between atoms: C4_4  and  C5_7 
REMARK    4  A    between atoms: O1_5  and  O2_6 
REMARK    5  A    between atoms: C5_7  and  O3_8 
REMARK    6  A    between atoms: C5_7  and  C6_9 
REMARK    7  A    between atoms: C6_9  and  C7_10 
REMARK    8  A    between atoms: C7_10  and  C9_12 
REMARK    9  A    between atoms: C20_23  and  O4_24 
ROOT
HETATM    1  C9  UNL     1       1.080   6.840  13.132  1.00  0.00    -0.002 C 
HETATM    2  C10 UNL     1       0.322   8.011  13.813  1.00  0.00     0.006 C 
HETATM    3  C11 UNL     1      -1.168   7.634  13.866  1.00  0.00     0.011 C 
HETATM    4  C12 UNL     1      -1.218   6.140  13.497  1.00  0.00    -0.032 C 
HETATM    5  C13 UNL     1      -0.944   5.347  14.814  1.00  0.00     0.016 C 
HETATM    6  C14 UNL     1      -2.557   5.682  12.861  1.00  0.00     0.004 C 
HETATM    7  C15 UNL     1      -3.738   5.637  13.842  1.00  0.00     0.006 C 
HETATM    8  C16 UNL     1      -5.020   5.244  13.115  1.00  0.00     0.006 C 
HETATM    9  C17 UNL     1      -4.945   3.782  12.660  1.00  0.00     0.001 C 
HETATM   10  C18 UNL     1      -6.151   3.344  11.786  1.00  0.00     0.015 C 
HETATM   11  C19 UNL     1      -7.483   3.501  12.536  1.00  0.00     0.013 C 
HETATM   12  C20 UNL     1      -5.994   1.881  11.294  1.00  0.00     0.122 C 
HETATM   13  C21 UNL     1      -4.794   1.157  11.907  1.00  0.00     0.033 C 
HETATM   14  C22 UNL     1      -3.482   1.929  11.717  1.00  0.00     0.013 C 
HETATM   15  C23 UNL     1      -3.649   3.433  11.924  1.00  0.00    -0.027 A 
HETATM   16  C24 UNL     1      -3.188   4.299  10.775  1.00  0.00     0.021 A 
HETATM   17  C25 UNL     1      -2.410   4.354  12.078  1.00  0.00    -0.027 A 
HETATM   18  C26 UNL     1      -1.042   3.672  12.107  1.00  0.00     0.011 C 
HETATM   19  C27 UNL     1       0.203   4.574  12.125  1.00  0.00     0.011 C 
HETATM   20  C28 UNL     1      -0.073   6.054  12.420  1.00  0.00    -0.032 C 
HETATM   21  C29 UNL     1      -0.415   6.756  11.072  1.00  0.00     0.016 C 
ENDROOT
BRANCH   1  22
HETATM   22  C7  UNL     1       2.321   7.314  12.316  1.00  0.00    -0.011 C 
HETATM   23  C8  UNL     1       2.045   8.605  11.550  1.00  0.00     0.010 C 
BRANCH  22  24
HETATM   24  C6  UNL     1       2.938   6.219  11.390  1.00  0.00     0.039 C 
BRANCH  24  25
HETATM   25  C5  UNL     1       3.502   6.592  10.003  1.00  0.00     0.154 C 
BRANCH  25  26
HETATM   26  C4  UNL     1       2.687   6.114   8.764  1.00  0.00     0.216 C 
BRANCH  26  27
HETATM   27  C2  UNL     1       2.459   7.190   7.708  1.00  0.00    -0.059 C 
HETATM   28  C1  UNL     1       1.781   6.963   6.567  1.00  0.00     0.016 C 
HETATM   29  C3  UNL     1       2.988   8.564   8.019  1.00  0.00     0.045 C 
ENDBRANCH  26  27
BRANCH  26  30
HETATM   30  O1  UNL     1       3.440   5.050   8.120  1.00  0.00    -0.231 OA
BRANCH  30  31
HETATM   31  O2  UNL     1       3.286   3.854   8.936  1.00  0.00    -0.250 OA
HETATM   32  H7  UNL     1       2.779   3.341   8.278  1.00  0.00     0.253 HD
ENDBRANCH  30  31
ENDBRANCH  26  30
ENDBRANCH  25  26
BRANCH  25  33
HETATM   33  O3  UNL     1       4.865   6.165   9.908  1.00  0.00    -0.393 OA
HETATM   34  H9  UNL     1       5.085   6.188   8.952  1.00  0.00     0.210 HD
ENDBRANCH  25  33
ENDBRANCH  24  25
ENDBRANCH  22  24
ENDBRANCH   1  22
BRANCH  12  35
HETATM   35  O4  UNL     1      -5.859   1.894   9.868  1.00  0.00    -0.395 OA
HETATM   36  H35 UNL     1      -5.826   0.969   9.571  1.00  0.00     0.210 HD
ENDBRANCH  12  35
TORSDOF 9
ENDMDL
