MODEL 1
REMARK minimizedAffinity -7.13113308
REMARK CNNscore 0.483772457
REMARK CNNaffinity 6.45791864
REMARK  6 active torsions:
REMARK  status: ('A' for Active; 'I' for Inactive)
REMARK    1  A    between atoms: C2_2  and  C4_4 
REMARK    2  A    between atoms: C10_11  and  O2_12 
REMARK    3  A    between atoms: C26_29  and  C27_30 
REMARK    4  A    between atoms: C27_30  and  O3_33 
REMARK    5  A    between atoms: C30_34  and  O4_35 
REMARK    6  A    between atoms: C37_43  and  O6_44 
ROOT
HETATM    1  C4  UNL     1     -18.707  -5.164  34.066  1.00  0.00     0.181 C 
HETATM    2  O1  UNL     1     -17.731  -6.169  33.751  1.00  0.00    -0.370 OA
HETATM    3  C5  UNL     1     -16.393  -5.652  33.629  1.00  0.00     0.163 C 
HETATM    4  C6  UNL     1     -15.516  -6.907  33.584  1.00  0.00     0.036 C 
HETATM    5  C7  UNL     1     -14.340  -6.868  32.626  1.00  0.00     0.016 C 
HETATM    6  C8  UNL     1     -14.722  -6.296  31.239  1.00  0.00     0.007 C 
HETATM    7  C9  UNL     1     -15.943  -7.108  30.667  1.00  0.00     0.020 C 
HETATM    8  C10 UNL     1     -15.158  -4.797  31.454  1.00  0.00     0.103 C 
HETATM    9  C11 UNL     1     -15.437  -4.092  30.092  1.00  0.00     0.046 C 
HETATM   10  C12 UNL     1     -14.313  -4.233  29.055  1.00  0.00     0.038 C 
HETATM   11  C13 UNL     1     -13.891  -5.656  28.942  1.00  0.00    -0.064 A 
HETATM   12  C14 UNL     1     -13.899  -6.510  27.884  1.00  0.00     0.018 A 
HETATM   13  C15 UNL     1     -13.543  -7.823  28.298  1.00  0.00     0.001 A 
HETATM   14  C16 UNL     1     -13.303  -7.749  29.644  1.00  0.00     0.034 A 
HETATM   15  N1  UNL     1     -12.892  -8.944  30.100  1.00  0.00    -0.357 N 
HETATM   16  C17 UNL     1     -12.879  -9.828  29.032  1.00  0.00     0.044 A 
HETATM   17  C18 UNL     1     -12.472 -11.163  29.049  1.00  0.00     0.031 A 
HETATM   18  C19 UNL     1     -12.485 -11.854  27.849  1.00  0.00     0.010 A 
HETATM   19  C20 UNL     1     -12.980 -11.260  26.683  1.00  0.00    -0.044 A 
HETATM   20  C21 UNL     1     -12.847 -12.045  25.397  1.00  0.00     0.073 C 
HETATM   21  C22 UNL     1     -13.840 -11.687  24.335  1.00  0.00    -0.078 C 
HETATM   22  C23 UNL     1     -14.480 -12.625  23.618  1.00  0.00     0.015 C 
HETATM   23  C24 UNL     1     -14.060 -10.227  24.069  1.00  0.00     0.054 C 
HETATM   24  C25 UNL     1     -15.496  -9.781  23.721  1.00  0.00     0.023 C 
HETATM   25  C26 UNL     1     -15.763  -9.534  25.224  1.00  0.00     0.060 C 
HETATM   26  C30 UNL     1     -14.181  -9.304  25.380  1.00  0.00     0.100 C 
HETATM   27  C31 UNL     1     -13.485  -9.924  26.674  1.00  0.00    -0.003 A 
HETATM   28  C32 UNL     1     -13.352  -9.161  27.871  1.00  0.00     0.013 A 
HETATM   29  C33 UNL     1     -13.492  -6.392  30.247  1.00  0.00     0.033 A 
HETATM   30  C34 UNL     1     -12.122  -5.894  30.760  1.00  0.00     0.028 C 
HETATM   31  C35 UNL     1     -16.340  -4.704  32.445  1.00  0.00     0.147 A 
HETATM   32  O5  UNL     1     -16.538  -3.321  32.886  1.00  0.00    -0.360 OA
HETATM   33  C36 UNL     1     -17.604  -3.899  32.140  1.00  0.00     0.194 A 
HETATM   34  C37 UNL     1     -18.861  -4.101  32.925  1.00  0.00     0.183 C 
HETATM   35  H21 UNL     1     -12.604  -9.169  31.041  1.00  0.00     0.166 HD
ENDROOT
BRANCH  25  36
HETATM   36  C27 UNL     1     -16.823  -8.454  25.501  1.00  0.00     0.057 C 
HETATM   37  C28 UNL     1     -16.483  -7.154  24.778  1.00  0.00     0.046 C 
HETATM   38  C29 UNL     1     -16.907  -8.172  27.008  1.00  0.00     0.046 C 
BRANCH  36  39
HETATM   39  O3  UNL     1     -18.101  -8.902  25.082  1.00  0.00    -0.390 OA
HETATM   40  H38 UNL     1     -17.993  -9.423  24.261  1.00  0.00     0.210 HD
ENDBRANCH  36  39
ENDBRANCH  25  36
BRANCH  26  41
HETATM   41  O4  UNL     1     -13.758  -7.932  25.123  1.00  0.00    -0.384 OA
HETATM   42  H39 UNL     1     -12.799  -7.949  25.256  1.00  0.00     0.211 HD
ENDBRANCH  26  41
BRANCH   8  43
HETATM   43  O2  UNL     1     -14.083  -4.060  32.064  1.00  0.00    -0.386 OA
HETATM   44  H15 UNL     1     -14.479  -3.215  32.356  1.00  0.00     0.210 HD
ENDBRANCH   8  43
BRANCH  34  45
HETATM   45  O6  UNL     1     -19.900  -4.414  31.985  1.00  0.00    -0.390 OA
HETATM   46  H45 UNL     1     -20.159  -3.577  31.561  1.00  0.00     0.210 HD
ENDBRANCH  34  45
BRANCH   1  47
HETATM   47  C2  UNL     1     -19.967  -5.919  34.481  1.00  0.00    -0.062 C 
HETATM   48  C1  UNL     1     -20.187  -7.217  34.163  1.00  0.00     0.016 C 
HETATM   49  C3  UNL     1     -21.017  -5.130  35.238  1.00  0.00     0.045 C 
ENDBRANCH   1  47
TORSDOF 6
ENDMDL
