MODEL 1
REMARK minimizedAffinity -6.62912416
REMARK CNNscore 0.584727824
REMARK CNNaffinity 6.19930267
REMARK  6 active torsions:
REMARK  status: ('A' for Active; 'I' for Inactive)
REMARK    1  A    between atoms: C2_2  and  C4_4 
REMARK    2  A    between atoms: C11_11  and  C12_12 
REMARK    3  A    between atoms: C12_12  and  O2_14 
REMARK    4  A    between atoms: C21_23  and  O3_24 
REMARK    5  A    between atoms: C22_25  and  C24_27 
REMARK    6  A    between atoms: C24_27  and  O4_28 
ROOT
HETATM    1  C4  UNL     1      -7.998  45.637 -31.693  1.00  0.00     0.018 C 
HETATM    2  C5  UNL     1      -6.662  46.344 -32.057  1.00  0.00     0.010 C 
HETATM    3  C6  UNL     1      -6.423  47.422 -30.985  1.00  0.00     0.010 C 
HETATM    4  C7  UNL     1      -7.815  47.683 -30.395  1.00  0.00    -0.039 C 
HETATM    5  C8  UNL     1      -8.583  48.625 -31.358  1.00  0.00     0.015 C 
HETATM    6  C9  UNL     1      -7.805  48.286 -28.986  1.00  0.00     0.011 C 
HETATM    7  C10 UNL     1      -9.201  48.218 -28.324  1.00  0.00     0.022 C 
HETATM    8  C11 UNL     1      -9.867  46.784 -28.324  1.00  0.00     0.057 C 
HETATM    9  C13 UNL     1      -9.807  46.217 -29.797  1.00  0.00     0.011 C 
HETATM   10  C14 UNL     1     -10.540  44.887 -29.978  1.00  0.00     0.007 C 
HETATM   11  C15 UNL     1     -11.973  44.934 -29.455  1.00  0.00     0.006 C 
HETATM   12  C16 UNL     1     -12.084  45.427 -27.994  1.00  0.00     0.003 C 
HETATM   13  C17 UNL     1     -13.558  45.249 -27.364  1.00  0.00    -0.035 C 
HETATM   14  C18 UNL     1     -14.645  45.512 -28.439  1.00  0.00     0.016 C 
HETATM   15  C19 UNL     1     -13.671  43.745 -26.949  1.00  0.00     0.012 C 
HETATM   16  C20 UNL     1     -14.871  43.404 -26.081  1.00  0.00     0.033 C 
HETATM   17  C21 UNL     1     -14.857  44.232 -24.804  1.00  0.00     0.128 C 
HETATM   18  C22 UNL     1     -14.922  45.755 -25.076  1.00  0.00     0.007 C 
HETATM   19  C23 UNL     1     -16.316  46.161 -25.637  1.00  0.00     0.020 C 
HETATM   20  C25 UNL     1     -13.769  46.185 -26.098  1.00  0.00     0.007 C 
HETATM   21  C26 UNL     1     -12.402  46.404 -25.423  1.00  0.00     0.007 C 
HETATM   22  C27 UNL     1     -11.441  47.220 -26.288  1.00  0.00     0.011 C 
HETATM   23  C28 UNL     1     -11.396  46.829 -27.796  1.00  0.00    -0.022 C 
HETATM   24  C29 UNL     1     -12.194  47.921 -28.568  1.00  0.00     0.017 C 
HETATM   25  C30 UNL     1      -8.349  46.230 -30.310  1.00  0.00     0.007 C 
ENDROOT
BRANCH   8  26
HETATM   26  C12 UNL     1      -8.985  45.943 -27.354  1.00  0.00     0.149 C 
HETATM   27  O1  UNL     1      -8.215  46.379 -26.510  1.00  0.00    -0.649 OA
BRANCH  26  28
HETATM   28  O2  UNL     1      -9.106  44.614 -27.454  1.00  0.00    -0.776 OA
HETATM   29  H18 UNL     1      -8.496  44.270 -26.768  1.00  0.00     0.167 HD
ENDBRANCH  26  28
ENDBRANCH   8  26
BRANCH   1  30
HETATM   30  C2  UNL     1      -7.857  44.130 -31.851  1.00  0.00    -0.089 C 
HETATM   31  C1  UNL     1      -8.265  43.424 -32.919  1.00  0.00     0.014 C 
HETATM   32  C3  UNL     1      -7.223  43.426 -30.680  1.00  0.00     0.043 C 
ENDBRANCH   1  30
BRANCH  18  33
HETATM   33  C24 UNL     1     -14.840  46.530 -23.723  1.00  0.00     0.176 C 
BRANCH  33  34
HETATM   34  O4  UNL     1     -15.271  47.883 -23.841  1.00  0.00    -0.400 OA
HETATM   35  H39 UNL     1     -15.323  48.243 -22.938  1.00  0.00     0.209 HD
ENDBRANCH  33  34
ENDBRANCH  18  33
BRANCH  17  36
HETATM   36  O3  UNL     1     -15.955  43.811 -23.993  1.00  0.00    -0.395 OA
HETATM   37  H33 UNL     1     -15.708  44.027 -23.076  1.00  0.00     0.210 HD
ENDBRANCH  17  36
TORSDOF 6
ENDMDL
