MODEL 1
REMARK minimizedAffinity -9.16117477
REMARK CNNscore 0.781052887
REMARK CNNaffinity 7.15833426
REMARK  8 active torsions:
REMARK  status: ('A' for Active; 'I' for Inactive)
REMARK    1  A    between atoms: C5_5  and  O1_6 
REMARK    2  A    between atoms: C9_10  and  C10_11 
REMARK    3  A    between atoms: C10_11  and  C11_12 
REMARK    4  A    between atoms: C11_12  and  C12_13 
REMARK    5  A    between atoms: C14_15  and  C15_16 
REMARK    6  A    between atoms: C15_16  and  C16_17 
REMARK    7  A    between atoms: C16_17  and  C17_18 
REMARK    8  A    between atoms: C23_24  and  O2_25 
ROOT
HETATM    1  C12 UNL     1      -3.220   8.715  13.578  1.00  0.00    -0.087 C 
HETATM    2  C13 UNL     1      -2.255   8.780  14.731  1.00  0.00     0.043 C 
HETATM    3  C14 UNL     1      -4.561   8.632  13.688  1.00  0.00    -0.024 C 
ENDROOT
BRANCH   3   4
HETATM    4  C15 UNL     1      -5.393   8.600  14.938  1.00  0.00     0.030 C 
BRANCH   4   5
HETATM    5  C16 UNL     1      -6.776   7.944  14.770  1.00  0.00     0.042 C 
BRANCH   5   6
HETATM    6  C17 UNL     1      -6.830   6.407  14.536  1.00  0.00     0.065 C 
HETATM    7  C18 UNL     1      -7.005   5.661  15.869  1.00  0.00     0.046 C 
HETATM    8  C19 UNL     1      -8.000   6.140  13.568  1.00  0.00     0.043 C 
HETATM    9  C20 UNL     1      -8.063   4.682  13.148  1.00  0.00     0.044 C 
HETATM   10  C21 UNL     1      -6.697   4.173  12.801  1.00  0.00    -0.021 A 
HETATM   11  C22 UNL     1      -6.571   2.979  12.076  1.00  0.00     0.046 A 
HETATM   12  C27 UNL     1      -5.545   4.856  13.214  1.00  0.00     0.082 A 
HETATM   13  C23 UNL     1      -5.307   2.494  11.755  1.00  0.00     0.066 A 
HETATM   14  C24 UNL     1      -4.164   3.178  12.145  1.00  0.00     0.046 A 
HETATM   15  C25 UNL     1      -4.271   4.371  12.872  1.00  0.00    -0.025 A 
HETATM   16  C26 UNL     1      -3.026   5.090  13.308  1.00  0.00     0.051 C 
HETATM   17  O3  UNL     1      -5.582   6.020  13.938  1.00  0.00    -0.340 OA
BRANCH  13  18
HETATM   18  O2  UNL     1      -5.148   1.338  11.050  1.00  0.00    -0.361 OA
HETATM   19  H36 UNL     1      -6.026   0.979  10.843  1.00  0.00     0.217 HD
ENDBRANCH  13  18
ENDBRANCH   5   6
ENDBRANCH   4   5
ENDBRANCH   3   4
BRANCH   1  20
HETATM   20  C11 UNL     1      -2.573   8.717  12.200  1.00  0.00     0.034 C 
BRANCH  20  21
HETATM   21  C10 UNL     1      -1.063   9.004  12.253  1.00  0.00     0.014 C 
BRANCH  21  22
HETATM   22  C9  UNL     1      -0.150   7.839  11.769  1.00  0.00     0.024 C 
HETATM   23  C2  UNL     1       0.113   7.854  10.247  1.00  0.00    -0.084 C 
HETATM   24  C1  UNL     1      -0.355   8.756   9.366  1.00  0.00     0.015 C 
HETATM   25  C3  UNL     1       1.046   6.778   9.725  1.00  0.00     0.036 C 
HETATM   26  C4  UNL     1       1.338   5.699  10.756  1.00  0.00     0.037 C 
HETATM   27  C5  UNL     1       1.840   6.268  12.090  1.00  0.00     0.127 C 
HETATM   28  C6  UNL     1       1.241   7.665  12.493  1.00  0.00    -0.014 C 
HETATM   29  C7  UNL     1       2.208   8.828  12.141  1.00  0.00     0.018 C 
HETATM   30  C8  UNL     1       1.134   7.662  14.033  1.00  0.00     0.018 C 
BRANCH  27  31
HETATM   31  O1  UNL     1       3.268   6.313  12.086  1.00  0.00    -0.395 OA
HETATM   32  H8  UNL     1       3.592   5.409  11.935  1.00  0.00     0.210 HD
ENDBRANCH  27  31
ENDBRANCH  21  22
ENDBRANCH  20  21
ENDBRANCH   1  20
TORSDOF 8
ENDMDL
