MODEL 1
REMARK minimizedAffinity -8.76480579
REMARK CNNscore 0.732610941
REMARK CNNaffinity 6.9720273
REMARK  10 active torsions:
REMARK  status: ('A' for Active; 'I' for Inactive)
REMARK    1  A    between atoms: N1_6  and  O1_8 
REMARK    2  A    between atoms: O1_8  and  C6_9 
REMARK    3  A    between atoms: C6_9  and  C7_10 
REMARK       I    between atoms: C7_10  and  N2_12 
REMARK    4  A    between atoms: N2_12  and  C8_13 
REMARK    5  A    between atoms: C8_13  and  C9_14 
REMARK    6  A    between atoms: C20_27  and  O3_28 
REMARK    7  A    between atoms: C27_35  and  O4_36 
REMARK    8  A    between atoms: C27_35  and  C28_37 
REMARK    9  A    between atoms: C28_37  and  C29_39 
REMARK   10  A    between atoms: C29_39  and  O6_40 
ROOT
HETATM    1  C1  UNL     1      -0.931   8.099  15.437  1.00  0.00     0.020 C 
HETATM    2  C2  UNL     1      -1.696   8.129  14.089  1.00  0.00    -0.014 C 
HETATM    3  C3  UNL     1      -2.599   9.398  14.048  1.00  0.00     0.020 C 
HETATM    4  C4  UNL     1      -3.763   9.354  15.024  1.00  0.00     0.060 C 
HETATM    5  C5  UNL     1      -4.606   8.116  14.799  1.00  0.00     0.032 C 
HETATM    6  N1  UNL     1      -5.877   8.219  15.042  1.00  0.00    -0.271 N 
ATOM      7  H1  UNL     1      -6.335   9.084  15.328  1.00  0.00     0.194 HD
HETATM    8  C14 UNL     1      -3.893   6.876  14.374  1.00  0.00     0.030 C 
HETATM    9  C15 UNL     1      -2.576   6.871  14.090  1.00  0.00    -0.069 C 
HETATM   10  C16 UNL     1      -1.902   5.548  13.791  1.00  0.00     0.035 C 
HETATM   11  C17 UNL     1      -0.639   5.673  12.940  1.00  0.00     0.010 C 
HETATM   12  C18 UNL     1      -0.744   6.867  11.989  1.00  0.00    -0.002 C 
HETATM   13  C19 UNL     1      -0.742   8.190  12.803  1.00  0.00     0.031 C 
HETATM   14  C20 UNL     1       0.687   8.704  13.097  1.00  0.00     0.124 C 
HETATM   15  C21 UNL     1       1.576   8.744  11.853  1.00  0.00     0.045 C 
HETATM   16  C22 UNL     1       1.692   7.384  11.121  1.00  0.00     0.001 C 
HETATM   17  C23 UNL     1       2.564   6.439  11.964  1.00  0.00     0.019 C 
HETATM   18  C24 UNL     1       0.286   6.811  10.841  1.00  0.00     0.002 C 
HETATM   19  C25 UNL     1      -0.196   7.603   9.604  1.00  0.00     0.009 C 
HETATM   20  C26 UNL     1       1.055   8.106   8.877  1.00  0.00     0.047 C 
HETATM   21  C27 UNL     1       2.260   7.573   9.674  1.00  0.00     0.128 C 
ENDROOT
BRANCH   6  22
HETATM   22  O1  UNL     1      -6.547   6.998  14.861  1.00  0.00    -0.271 OA
BRANCH  22  23
HETATM   23  C6  UNL     1      -7.773   7.042  15.571  1.00  0.00     0.303 C 
BRANCH  23  24
HETATM   24  C7  UNL     1      -8.968   6.814  14.645  1.00  0.00     0.244 C 
HETATM   25  O2  UNL     1      -8.874   6.507  13.461  1.00  0.00    -0.271 OA
HETATM   26  N2  UNL     1     -10.186   6.982  15.280  1.00  0.00    -0.355 N 
HETATM   27  H10 UNL     1     -10.203   7.387  16.206  1.00  0.00     0.162 HD
BRANCH  26  28
HETATM   28  C8  UNL     1     -11.439   6.881  14.566  1.00  0.00     0.161 C 
BRANCH  28  29
HETATM   29  C9  UNL     1     -11.888   8.230  14.074  1.00  0.00    -0.038 A 
HETATM   30  C10 UNL     1     -12.156   8.436  12.718  1.00  0.00     0.025 A 
HETATM   31  C11 UNL     1     -12.546   9.697  12.299  1.00  0.00     0.088 A 
HETATM   32  N3  UNL     1     -12.680  10.755  13.127  1.00  0.00    -0.375 N 
HETATM   33  C12 UNL     1     -12.407  10.539  14.431  1.00  0.00     0.088 A 
ATOM     34  H3  UNL     1     -12.973  11.670  12.785  1.00  0.00     0.164 HD
HETATM   35  C13 UNL     1     -12.012   9.315  14.948  1.00  0.00     0.025 A 
ENDBRANCH  28  29
ENDBRANCH  26  28
ENDBRANCH  23  24
ENDBRANCH  22  23
ENDBRANCH   6  22
BRANCH  14  36
HETATM   36  O3  UNL     1       0.605  10.040  13.602  1.00  0.00    -0.395 OA
HETATM   37  H25 UNL     1       1.508  10.319  13.840  1.00  0.00     0.210 HD
ENDBRANCH  14  36
BRANCH  21  38
HETATM   38  O4  UNL     1       3.305   8.543   9.665  1.00  0.00    -0.381 OA
HETATM   39  H36 UNL     1       3.358   8.930   8.771  1.00  0.00     0.211 HD
ENDBRANCH  21  38
BRANCH  21  40
HETATM   40  C28 UNL     1       2.767   6.257   9.021  1.00  0.00     0.184 C 
HETATM   41  O5  UNL     1       2.362   5.854   7.925  1.00  0.00    -0.292 OA
BRANCH  40  42
HETATM   42  C29 UNL     1       3.818   5.450   9.781  1.00  0.00     0.245 C 
BRANCH  42  43
HETATM   43  O6  UNL     1       3.483   4.068   9.819  1.00  0.00    -0.393 OA
HETATM   44  H39 UNL     1       2.866   3.915   9.075  1.00  0.00     0.209 HD
ENDBRANCH  42  43
ENDBRANCH  40  42
ENDBRANCH  21  40
TORSDOF 10
ENDMDL
