MODEL 1
REMARK minimizedAffinity -8.19740486
REMARK CNNscore 0.87449342
REMARK CNNaffinity 7.46696901
REMARK  19 active torsions:
REMARK  status: ('A' for Active; 'I' for Inactive)
REMARK    1  A    between atoms: C19_20  and  O2_21 
REMARK    2  A    between atoms: C19_20  and  C20_22 
REMARK    3  A    between atoms: C20_22  and  C21_24 
REMARK    4  A    between atoms: C21_24  and  O4_25 
REMARK    5  A    between atoms: O4_25  and  C22_26 
REMARK    6  A    between atoms: C22_26  and  C23_28 
REMARK    7  A    between atoms: C23_28  and  C24_29 
REMARK    8  A    between atoms: C24_29  and  C25_30 
REMARK       I    between atoms: C25_30  and  N1_32 
REMARK    9  A    between atoms: N1_32  and  C26_33 
REMARK   10  A    between atoms: C26_33  and  C27_34 
REMARK   11  A    between atoms: C27_34  and  C28_35 
REMARK   12  A    between atoms: C28_35  and  C29_36 
REMARK   13  A    between atoms: C29_36  and  C30_37 
REMARK   14  A    between atoms: C30_37  and  C31_38 
REMARK       I    between atoms: C31_38  and  N2_40 
REMARK   15  A    between atoms: N2_40  and  C32_41 
REMARK   16  A    between atoms: C32_41  and  C33_42 
REMARK   17  A    between atoms: C33_42  and  C34_43 
REMARK   18  A    between atoms: C37_46  and  O8_47 
REMARK   19  A    between atoms: C38_48  and  O9_49 
ROOT
HETATM    1  C22 UNL     1      -4.206  48.739 -28.144  1.00  0.00     0.259 C 
HETATM    2  O5  UNL     1      -3.933  49.608 -28.960  1.00  0.00    -0.265 OA
ENDROOT
BRANCH   1   3
HETATM    3  O4  UNL     1      -3.377  48.306 -27.160  1.00  0.00    -0.314 OA
BRANCH   3   4
HETATM    4  C21 UNL     1      -2.770  49.267 -26.307  1.00  0.00     0.260 C 
BRANCH   4   5
HETATM    5  C20 UNL     1      -3.438  50.519 -25.700  1.00  0.00     0.185 C 
HETATM    6  O3  UNL     1      -3.448  51.571 -26.352  1.00  0.00    -0.292 OA
BRANCH   5   7
HETATM    7  C19 UNL     1      -4.186  50.394 -24.337  1.00  0.00     0.128 C 
HETATM    8  C14 UNL     1      -3.414  50.989 -23.110  1.00  0.00    -0.002 C 
HETATM    9  C13 UNL     1      -4.354  51.149 -21.875  1.00  0.00     0.013 C 
HETATM   10  C15 UNL     1      -2.784  52.356 -23.428  1.00  0.00     0.019 C 
HETATM   11  C16 UNL     1      -2.348  49.908 -22.847  1.00  0.00     0.002 C 
HETATM   12  C12 UNL     1      -3.803  50.639 -20.536  1.00  0.00     0.007 C 
HETATM   13  C11 UNL     1      -2.286  50.825 -20.390  1.00  0.00     0.002 C 
HETATM   14  C2  UNL     1      -1.695  50.500 -18.965  1.00  0.00    -0.016 C 
HETATM   15  C10 UNL     1      -1.530  50.087 -21.542  1.00  0.00    -0.004 C 
HETATM   16  C1  UNL     1      -0.272  51.123 -18.872  1.00  0.00     0.020 C 
HETATM   17  C3  UNL     1      -2.556  51.122 -17.828  1.00  0.00     0.022 C 
HETATM   18  C7  UNL     1      -1.610  48.996 -18.721  1.00  0.00    -0.068 C 
HETATM   19  C4  UNL     1      -2.041  50.780 -16.432  1.00  0.00     0.084 C 
HETATM   20  C5  UNL     1      -1.836  49.291 -16.275  1.00  0.00     0.149 C 
HETATM   21  O1  UNL     1      -1.775  48.757 -15.170  1.00  0.00    -0.293 OA
HETATM   22  C6  UNL     1      -1.672  48.457 -17.490  1.00  0.00     0.053 C 
HETATM   23  C8  UNL     1      -1.472  48.095 -19.921  1.00  0.00     0.035 C 
HETATM   24  C9  UNL     1      -0.815  48.788 -21.109  1.00  0.00     0.010 C 
HETATM   25  C17 UNL     1      -3.123  48.590 -23.032  1.00  0.00     0.009 C 
HETATM   26  C18 UNL     1      -4.299  48.898 -23.967  1.00  0.00     0.047 C 
BRANCH   7  27
HETATM   27  O2  UNL     1      -5.489  50.959 -24.426  1.00  0.00    -0.381 OA
HETATM   28  H27 UNL     1      -6.028  50.311 -24.927  1.00  0.00     0.211 HD
ENDBRANCH   7  27
ENDBRANCH   5   7
ENDBRANCH   4   5
ENDBRANCH   3   4
ENDBRANCH   1   3
BRANCH   1  29
HETATM   29  C23 UNL     1      -5.476  47.924 -28.150  1.00  0.00     0.120 C 
BRANCH  29  30
HETATM   30  C24 UNL     1      -6.081  47.799 -26.758  1.00  0.00     0.112 C 
BRANCH  30  31
HETATM   31  C25 UNL     1      -7.503  47.273 -26.796  1.00  0.00     0.217 C 
HETATM   32  O6  UNL     1      -7.862  46.249 -26.229  1.00  0.00    -0.274 OA
HETATM   33  N1  UNL     1      -8.353  48.076 -27.529  1.00  0.00    -0.361 N 
HETATM   34  H34 UNL     1      -7.939  48.761 -28.149  1.00  0.00     0.162 HD
BRANCH  33  35
HETATM   35  C26 UNL     1      -9.723  47.680 -27.779  1.00  0.00     0.122 C 
BRANCH  35  36
HETATM   36  C27 UNL     1     -10.680  48.198 -26.708  1.00  0.00     0.020 C 
BRANCH  36  37
HETATM   37  C28 UNL     1     -12.163  48.132 -27.094  1.00  0.00     0.002 C 
BRANCH  37  38
HETATM   38  C29 UNL     1     -12.764  46.724 -27.217  1.00  0.00     0.009 C 
BRANCH  38  39
HETATM   39  C30 UNL     1     -13.494  46.225 -25.969  1.00  0.00     0.103 C 
BRANCH  39  40
HETATM   40  C31 UNL     1     -14.772  45.466 -26.281  1.00  0.00     0.217 C 
HETATM   41  O7  UNL     1     -14.835  44.525 -27.062  1.00  0.00    -0.274 OA
HETATM   42  N2  UNL     1     -15.871  45.975 -25.620  1.00  0.00    -0.361 N 
HETATM   43  H45 UNL     1     -15.712  46.609 -24.845  1.00  0.00     0.162 HD
BRANCH  42  44
HETATM   44  C32 UNL     1     -17.174  45.345 -25.715  1.00  0.00     0.127 C 
BRANCH  44  45
HETATM   45  C33 UNL     1     -17.250  43.993 -24.993  1.00  0.00     0.058 C 
BRANCH  45  46
HETATM   46  C34 UNL     1     -18.568  43.780 -24.280  1.00  0.00    -0.054 A 
HETATM   47  C35 UNL     1     -18.994  44.701 -23.306  1.00  0.00     0.010 A 
HETATM   48  C36 UNL     1     -20.221  44.542 -22.662  1.00  0.00     0.040 A 
HETATM   49  C37 UNL     1     -21.019  43.459 -22.990  1.00  0.00     0.098 A 
HETATM   50  C38 UNL     1     -20.609  42.534 -23.949  1.00  0.00     0.099 A 
HETATM   51  C39 UNL     1     -19.388  42.687 -24.599  1.00  0.00     0.046 A 
BRANCH  49  52
HETATM   52  O8  UNL     1     -22.226  43.307 -22.369  1.00  0.00    -0.358 OA
HETATM   53  H52 UNL     1     -22.606  42.498 -22.766  1.00  0.00     0.217 HD
ENDBRANCH  49  52
BRANCH  50  54
HETATM   54  O9  UNL     1     -21.448  41.490 -24.222  1.00  0.00    -0.358 OA
HETATM   55  H53 UNL     1     -21.017  40.916 -24.878  1.00  0.00     0.217 HD
ENDBRANCH  50  54
ENDBRANCH  45  46
ENDBRANCH  44  45
ENDBRANCH  42  44
ENDBRANCH  39  40
ENDBRANCH  38  39
ENDBRANCH  37  38
ENDBRANCH  36  37
ENDBRANCH  35  36
ENDBRANCH  33  35
ENDBRANCH  30  31
ENDBRANCH  29  30
ENDBRANCH   1  29
TORSDOF 19
ENDMDL
