MODEL 1
REMARK minimizedAffinity -7.80401373
REMARK CNNscore 0.792847574
REMARK CNNaffinity 7.03650141
REMARK  8 active torsions:
REMARK  status: ('A' for Active; 'I' for Inactive)
REMARK    1  A    between atoms: C4_4  and  C5_5 
REMARK    2  A    between atoms: C5_5  and  C6_6 
REMARK    3  A    between atoms: C6_6  and  C7_7 
REMARK    4  A    between atoms: C7_7  and  C9_9 
REMARK    5  A    between atoms: C19_19  and  C21_21 
REMARK    6  A    between atoms: C21_21  and  O2_23 
REMARK    7  A    between atoms: C22_24  and  O3_25 
REMARK    8  A    between atoms: C24_27  and  O4_28 
ROOT
HETATM    1  C9  UNL     1       4.375  54.407  -7.805  1.00  0.00    -0.002 C 
HETATM    2  C10 UNL     1       3.854  54.136  -6.363  1.00  0.00     0.006 C 
HETATM    3  C11 UNL     1       2.320  54.272  -6.401  1.00  0.00     0.011 C 
HETATM    4  C12 UNL     1       1.948  54.090  -7.885  1.00  0.00    -0.028 C 
HETATM    5  C13 UNL     1       2.109  52.535  -8.178  1.00  0.00     0.016 C 
HETATM    6  C14 UNL     1       0.468  54.518  -8.334  1.00  0.00    -0.028 C 
HETATM    7  C15 UNL     1       0.042  55.952  -7.909  1.00  0.00     0.016 C 
HETATM    8  C16 UNL     1      -0.560  53.571  -7.610  1.00  0.00     0.011 C 
HETATM    9  C17 UNL     1      -1.882  53.365  -8.337  1.00  0.00     0.007 C 
HETATM   10  C18 UNL     1      -1.635  52.682  -9.692  1.00  0.00     0.018 C 
HETATM   11  C19 UNL     1      -2.963  52.353 -10.481  1.00  0.00     0.072 C 
HETATM   12  C20 UNL     1      -4.012  53.483 -10.373  1.00  0.00     0.030 C 
HETATM   13  C22 UNL     1      -2.664  52.000 -11.973  1.00  0.00     0.139 C 
HETATM   14  C23 UNL     1      -1.219  51.566 -12.176  1.00  0.00     0.065 C 
HETATM   15  C24 UNL     1      -0.238  52.685 -11.825  1.00  0.00     0.130 C 
HETATM   16  C25 UNL     1      -0.632  53.447 -10.559  1.00  0.00    -0.000 A 
HETATM   17  C26 UNL     1      -0.838  54.936 -10.645  1.00  0.00     0.024 A 
HETATM   18  C27 UNL     1       0.400  54.428  -9.915  1.00  0.00    -0.021 A 
HETATM   19  C28 UNL     1       1.661  54.915 -10.673  1.00  0.00     0.012 C 
HETATM   20  C29 UNL     1       3.033  54.579 -10.074  1.00  0.00     0.011 C 
HETATM   21  C30 UNL     1       3.104  54.923  -8.579  1.00  0.00    -0.032 C 
HETATM   22  C31 UNL     1       3.031  56.460  -8.425  1.00  0.00     0.016 C 
ENDROOT
BRANCH   1  23
HETATM   23  C7  UNL     1       5.761  55.125  -7.829  1.00  0.00    -0.014 C 
HETATM   24  C8  UNL     1       6.387  55.074  -9.229  1.00  0.00     0.010 C 
BRANCH  23  25
HETATM   25  C6  UNL     1       5.816  56.558  -7.245  1.00  0.00     0.008 C 
BRANCH  25  26
HETATM   26  C5  UNL     1       6.261  56.614  -5.773  1.00  0.00     0.028 C 
BRANCH  26  27
HETATM   27  C4  UNL     1       7.751  56.633  -5.591  1.00  0.00    -0.025 C 
HETATM   28  C2  UNL     1       8.525  57.642  -5.144  1.00  0.00    -0.091 C 
HETATM   29  C1  UNL     1       8.028  58.987  -4.689  1.00  0.00     0.042 C 
HETATM   30  C3  UNL     1      10.020  57.476  -5.052  1.00  0.00     0.042 C 
ENDBRANCH  26  27
ENDBRANCH  25  26
ENDBRANCH  23  25
ENDBRANCH   1  23
BRANCH  15  31
HETATM   31  O4  UNL     1       1.040  52.081 -11.633  1.00  0.00    -0.395 OA
HETATM   32  H41 UNL     1       1.330  51.752 -12.500  1.00  0.00     0.210 HD
ENDBRANCH  15  31
BRANCH  11  33
HETATM   33  C21 UNL     1      -3.583  51.095  -9.863  1.00  0.00     0.151 C 
HETATM   34  O1  UNL     1      -4.725  50.689  -9.991  1.00  0.00    -0.649 OA
BRANCH  33  35
HETATM   35  O2  UNL     1      -2.733  50.410  -9.067  1.00  0.00    -0.776 OA
HETATM   36  H35 UNL     1      -3.265  49.643  -8.762  1.00  0.00     0.167 HD
ENDBRANCH  33  35
ENDBRANCH  11  33
BRANCH  13  37
HETATM   37  O3  UNL     1      -2.909  53.094 -12.864  1.00  0.00    -0.394 OA
HETATM   38  H37 UNL     1      -3.872  53.168 -12.982  1.00  0.00     0.210 HD
ENDBRANCH  13  37
TORSDOF 8
ENDMDL
