MODEL 1
REMARK minimizedAffinity -8.79541397
REMARK  5 active torsions:
REMARK  status: ('A' for Active; 'I' for Inactive)
REMARK    1  A    between atoms: C2_2  and  C3_3 
REMARK    2  A    between atoms: C8_8  and  C9_9 
REMARK    3  A    between atoms: C9_9  and  C11_11 
REMARK    4  A    between atoms: C11_11  and  C12_12 
REMARK    5  A    between atoms: C12_12  and  C13_13 
ROOT
HETATM    1  C3  UNL     1       0.014   6.029  12.211  1.00  0.00    -0.032 C 
HETATM    2  C4  UNL     1      -1.517   5.821  11.888  1.00  0.00     0.011 C 
HETATM    3  C5  UNL     1      -2.502   6.823  12.529  1.00  0.00     0.011 C 
HETATM    4  C6  UNL     1      -2.289   6.901  14.047  1.00  0.00    -0.032 C 
HETATM    5  C7  UNL     1      -2.571   5.483  14.636  1.00  0.00     0.016 C 
HETATM    6  C8  UNL     1      -3.115   7.958  14.835  1.00  0.00    -0.002 C 
HETATM    7  C17 UNL     1      -2.296   8.120  16.146  1.00  0.00     0.006 C 
HETATM    8  C18 UNL     1      -0.872   7.564  15.853  1.00  0.00     0.011 C 
HETATM    9  C19 UNL     1      -0.818   7.429  14.313  1.00  0.00    -0.032 C 
HETATM   10  C20 UNL     1      -0.537   8.883  13.806  1.00  0.00     0.016 C 
HETATM   11  C21 UNL     1       0.214   6.402  13.733  1.00  0.00     0.003 C 
HETATM   12  C22 UNL     1       1.679   6.682  14.066  1.00  0.00     0.006 C 
HETATM   13  C23 UNL     1       2.492   7.531  13.102  1.00  0.00     0.006 C 
HETATM   14  C24 UNL     1       1.985   7.776  11.664  1.00  0.00     0.005 C 
HETATM   15  C25 UNL     1       0.599   7.162  11.275  1.00  0.00    -0.000 C 
HETATM   16  C26 UNL     1       0.498   6.894   9.754  1.00  0.00     0.013 C 
HETATM   17  C27 UNL     1       1.124   8.024   8.954  1.00  0.00     0.079 C 
HETATM   18  C28 UNL     1       2.609   8.073   9.195  1.00  0.00     0.135 C 
HETATM   19  O1  UNL     1       3.364   8.433   8.290  1.00  0.00    -0.297 OA
HETATM   20  C29 UNL     1       3.132   7.675  10.585  1.00  0.00     0.017 C 
HETATM   21  C30 UNL     1       4.271   8.667  10.930  1.00  0.00     0.023 C 
HETATM   22  C31 UNL     1       3.740   6.270  10.451  1.00  0.00     0.023 C 
ENDROOT
BRANCH   6  23
HETATM   23  C9  UNL     1      -4.664   7.888  14.940  1.00  0.00    -0.014 C 
HETATM   24  C10 UNL     1      -5.194   9.200  15.551  1.00  0.00     0.010 C 
BRANCH  23  25
HETATM   25  C11 UNL     1      -5.396   6.668  15.546  1.00  0.00     0.008 C 
BRANCH  25  26
HETATM   26  C12 UNL     1      -6.408   5.852  14.734  1.00  0.00     0.028 C 
BRANCH  26  27
HETATM   27  C13 UNL     1      -5.854   5.143  13.533  1.00  0.00    -0.025 C 
HETATM   28  C14 UNL     1      -6.311   4.006  12.972  1.00  0.00    -0.091 C 
HETATM   29  C15 UNL     1      -7.470   3.200  13.487  1.00  0.00     0.042 C 
HETATM   30  C16 UNL     1      -5.650   3.435  11.746  1.00  0.00     0.042 C 
ENDBRANCH  26  27
ENDBRANCH  25  26
ENDBRANCH  23  25
ENDBRANCH   6  23
BRANCH   1  31
HETATM   31  C2  UNL     1       0.764   4.687  11.872  1.00  0.00     0.006 C 
HETATM   32  C1  UNL     1      -0.064   3.405  11.782  1.00  0.00     0.006 C 
ENDBRANCH   1  31
TORSDOF 5
ENDMDL
