MODEL 1
REMARK minimizedAffinity -7.80132008
REMARK CNNscore 0.675356209
REMARK CNNaffinity 7.07330275
REMARK  19 active torsions:
REMARK  status: ('A' for Active; 'I' for Inactive)
REMARK    1  A    between atoms: C2_2  and  C3_3 
REMARK    2  A    between atoms: C3_3  and  C5_5 
REMARK    3  A    between atoms: C5_5  and  N1_6 
REMARK    4  A    between atoms: C5_5  and  C37_46 
REMARK       I    between atoms: N1_6  and  C6_7 
REMARK    5  A    between atoms: C6_7  and  C7_9 
REMARK    6  A    between atoms: C7_9  and  C8_10 
REMARK    7  A    between atoms: C8_10  and  C9_11 
REMARK    8  A    between atoms: C9_11  and  C10_12 
REMARK    9  A    between atoms: C10_12  and  C11_13 
REMARK   10  A    between atoms: C11_13  and  N2_14 
REMARK       I    between atoms: N2_14  and  C12_15 
REMARK   11  A    between atoms: C12_15  and  C13_17 
REMARK   12  A    between atoms: C13_17  and  C14_18 
REMARK   13  A    between atoms: C14_18  and  C15_19 
REMARK   14  A    between atoms: C15_19  and  O4_21 
REMARK   15  A    between atoms: O4_21  and  C16_22 
REMARK   16  A    between atoms: C16_22  and  C17_23 
REMARK   17  A    between atoms: C17_23  and  C18_25 
REMARK   18  A    between atoms: C18_25  and  O6_26 
REMARK   19  A    between atoms: C37_46  and  O9_48 
ROOT
HETATM    1  C15 UNL     1      -1.900  50.799 -12.572  1.00  0.00     0.259 C 
HETATM    2  O3  UNL     1      -2.116  51.832 -13.193  1.00  0.00    -0.265 OA
ENDROOT
BRANCH   1   3
HETATM    3  C14 UNL     1      -1.806  49.448 -13.243  1.00  0.00     0.120 C 
BRANCH   3   4
HETATM    4  C13 UNL     1      -2.651  49.282 -14.498  1.00  0.00     0.112 C 
BRANCH   4   5
HETATM    5  C12 UNL     1      -1.798  49.101 -15.738  1.00  0.00     0.217 C 
HETATM    6  N2  UNL     1      -1.965  50.115 -16.655  1.00  0.00    -0.361 N 
HETATM    7  H22 UNL     1      -2.523  50.927 -16.406  1.00  0.00     0.162 HD
HETATM    8  O2  UNL     1      -1.060  48.138 -15.915  1.00  0.00    -0.274 OA
BRANCH   6   9
HETATM    9  C11 UNL     1      -1.211  50.138 -17.889  1.00  0.00     0.122 C 
BRANCH   9  10
HETATM   10  C10 UNL     1       0.179  50.754 -17.737  1.00  0.00     0.020 C 
BRANCH  10  11
HETATM   11  C9  UNL     1       0.288  52.222 -18.175  1.00  0.00     0.002 C 
BRANCH  11  12
HETATM   12  C8  UNL     1       0.041  52.457 -19.669  1.00  0.00     0.009 C 
BRANCH  12  13
HETATM   13  C7  UNL     1       0.438  53.869 -20.107  1.00  0.00     0.103 C 
BRANCH  13  14
HETATM   14  C6  UNL     1       1.190  53.887 -21.427  1.00  0.00     0.218 C 
HETATM   15  N1  UNL     1       0.581  53.132 -22.407  1.00  0.00    -0.346 N 
HETATM   16  H11 UNL     1      -0.416  52.973 -22.305  1.00  0.00     0.163 HD
HETATM   17  O1  UNL     1       2.223  54.521 -21.610  1.00  0.00    -0.274 OA
BRANCH  15  18
HETATM   18  C5  UNL     1       1.104  53.139 -23.777  1.00  0.00     0.186 C 
BRANCH  18  19
HETATM   19  C3  UNL     1       0.745  51.827 -24.520  1.00  0.00     0.014 C 
HETATM   20  C4  UNL     1      -0.729  51.458 -24.296  1.00  0.00     0.012 C 
BRANCH  19  21
HETATM   21  C2  UNL     1       1.053  51.948 -26.032  1.00  0.00     0.002 C 
HETATM   22  C1  UNL     1       0.247  50.996 -26.906  1.00  0.00     0.005 C 
ENDBRANCH  19  21
ENDBRANCH  18  19
BRANCH  18  23
HETATM   23  C37 UNL     1       0.475  54.355 -24.463  1.00  0.00     0.163 C 
HETATM   24  O8  UNL     1      -0.568  54.356 -25.103  1.00  0.00    -0.648 OA
BRANCH  23  25
HETATM   25  O9  UNL     1       1.203  55.483 -24.325  1.00  0.00    -0.775 OA
HETATM   26  H56 UNL     1       0.667  56.172 -24.767  1.00  0.00     0.167 HD
ENDBRANCH  23  25
ENDBRANCH  18  23
ENDBRANCH  15  18
ENDBRANCH  13  14
ENDBRANCH  12  13
ENDBRANCH  11  12
ENDBRANCH  10  11
ENDBRANCH   9  10
ENDBRANCH   6   9
ENDBRANCH   4   5
ENDBRANCH   3   4
ENDBRANCH   1   3
BRANCH   1  27
HETATM   27  O4  UNL     1      -1.870  50.715 -11.219  1.00  0.00    -0.314 OA
BRANCH  27  28
HETATM   28  C16 UNL     1      -2.354  51.850 -10.506  1.00  0.00     0.260 C 
BRANCH  28  29
HETATM   29  C17 UNL     1      -1.537  52.591  -9.429  1.00  0.00     0.185 C 
HETATM   30  O5  UNL     1      -2.090  52.917  -8.373  1.00  0.00    -0.292 OA
BRANCH  29  31
HETATM   31  C18 UNL     1      -0.108  53.065  -9.804  1.00  0.00     0.128 C 
HETATM   32  C19 UNL     1      -0.183  53.835 -11.150  1.00  0.00     0.047 C 
HETATM   33  C20 UNL     1       0.929  54.900 -11.113  1.00  0.00     0.009 C 
HETATM   34  C21 UNL     1       1.696  54.623  -9.817  1.00  0.00     0.002 C 
HETATM   35  C22 UNL     1       2.543  55.780  -9.247  1.00  0.00    -0.004 C 
HETATM   36  C35 UNL     1       0.606  54.093  -8.850  1.00  0.00    -0.002 C 
HETATM   37  C23 UNL     1       3.747  56.068 -10.172  1.00  0.00     0.010 C 
HETATM   38  C32 UNL     1       2.939  55.506  -7.743  1.00  0.00     0.002 C 
HETATM   39  C24 UNL     1       5.002  55.318  -9.749  1.00  0.00     0.035 C 
HETATM   40  C25 UNL     1       5.426  55.657  -8.343  1.00  0.00    -0.068 C 
HETATM   41  C26 UNL     1       6.722  55.546  -7.996  1.00  0.00     0.053 C 
HETATM   42  C30 UNL     1       4.345  56.102  -7.359  1.00  0.00    -0.016 C 
HETATM   43  C27 UNL     1       7.196  55.841  -6.619  1.00  0.00     0.149 C 
HETATM   44  O7  UNL     1       8.403  55.828  -6.385  1.00  0.00    -0.293 OA
HETATM   45  C28 UNL     1       6.177  56.187  -5.558  1.00  0.00     0.084 C 
HETATM   46  C29 UNL     1       4.791  55.663  -5.934  1.00  0.00     0.022 C 
HETATM   47  C31 UNL     1       4.236  57.654  -7.362  1.00  0.00     0.020 C 
HETATM   48  C33 UNL     1       2.738  54.010  -7.382  1.00  0.00     0.007 C 
HETATM   49  C34 UNL     1       1.299  53.504  -7.601  1.00  0.00     0.013 C 
HETATM   50  C36 UNL     1      -0.347  55.234  -8.393  1.00  0.00     0.019 C 
BRANCH  31  51
HETATM   51  O6  UNL     1       0.761  51.949 -10.048  1.00  0.00    -0.381 OA
HETATM   52  H29 UNL     1       0.826  51.451  -9.216  1.00  0.00     0.211 HD
ENDBRANCH  31  51
ENDBRANCH  29  31
ENDBRANCH  28  29
ENDBRANCH  27  28
ENDBRANCH   1  27
TORSDOF 19
ENDMDL
