MODEL 1
REMARK minimizedAffinity -6.69534969
REMARK CNNscore 0.807168365
REMARK CNNaffinity 7.08562708
REMARK  7 active torsions:
REMARK  status: ('A' for Active; 'I' for Inactive)
REMARK    1  A    between atoms: C2_2  and  C30_32 
REMARK    2  A    between atoms: C3_3  and  C4_4 
REMARK    3  A    between atoms: C4_4  and  O1_5 
REMARK    4  A    between atoms: C4_4  and  C5_6 
REMARK    5  A    between atoms: C5_6  and  C6_7 
REMARK    6  A    between atoms: C6_7  and  C8_9 
REMARK    7  A    between atoms: C30_32  and  O3_33 
ROOT
HETATM    1  C8  UNL     1       1.655  55.546  -9.664  1.00  0.00    -0.002 C 
HETATM    2  C9  UNL     1       1.067  55.771  -8.241  1.00  0.00     0.007 C 
HETATM    3  C10 UNL     1      -0.109  54.787  -8.078  1.00  0.00     0.015 C 
HETATM    4  C11 UNL     1      -0.432  54.322  -9.513  1.00  0.00    -0.013 C 
HETATM    5  C12 UNL     1      -1.316  55.448 -10.146  1.00  0.00     0.021 C 
HETATM    6  C13 UNL     1      -1.220  53.028  -9.698  1.00  0.00    -0.070 C 
HETATM    7  C14 UNL     1      -2.153  52.625  -8.817  1.00  0.00    -0.022 C 
HETATM    8  C15 UNL     1      -3.066  51.456  -9.025  1.00  0.00     0.034 C 
HETATM    9  C16 UNL     1      -2.715  50.560 -10.238  1.00  0.00     0.013 C 
HETATM   10  C17 UNL     1      -3.804  49.468 -10.544  1.00  0.00     0.018 C 
HETATM   11  C18 UNL     1      -5.242  49.908 -10.185  1.00  0.00     0.023 C 
HETATM   12  C19 UNL     1      -3.486  48.213  -9.691  1.00  0.00     0.023 C 
HETATM   13  C20 UNL     1      -3.851  48.977 -12.000  1.00  0.00     0.135 C 
HETATM   14  O2  UNL     1      -4.703  48.148 -12.360  1.00  0.00    -0.297 OA
HETATM   15  C21 UNL     1      -2.878  49.488 -13.037  1.00  0.00     0.080 C 
HETATM   16  C22 UNL     1      -1.773  50.395 -12.540  1.00  0.00     0.017 C 
HETATM   17  C23 UNL     1      -2.218  51.403 -11.458  1.00  0.00    -0.031 C 
HETATM   18  C24 UNL     1      -3.315  52.334 -12.019  1.00  0.00     0.016 C 
HETATM   19  C25 UNL     1      -0.953  52.234 -10.980  1.00  0.00     0.024 C 
HETATM   20  C26 UNL     1      -0.280  53.083 -12.087  1.00  0.00     0.010 C 
HETATM   21  C27 UNL     1       0.901  53.977 -11.640  1.00  0.00     0.011 C 
HETATM   22  C28 UNL     1       1.014  54.190 -10.115  1.00  0.00    -0.029 C 
HETATM   23  C29 UNL     1       1.834  53.017  -9.503  1.00  0.00     0.016 C 
ENDROOT
BRANCH   1  24
HETATM   24  C6  UNL     1       3.184  55.848  -9.786  1.00  0.00    -0.011 C 
HETATM   25  C7  UNL     1       3.687  56.347 -11.147  1.00  0.00     0.010 C 
BRANCH  24  26
HETATM   26  C5  UNL     1       3.667  56.786  -8.650  1.00  0.00     0.040 C 
BRANCH  26  27
HETATM   27  C4  UNL     1       4.781  56.205  -7.768  1.00  0.00     0.141 C 
BRANCH  27  28
HETATM   28  C3  UNL     1       5.170  57.142  -6.652  1.00  0.00     0.009 C 
HETATM   29  C2  UNL     1       4.420  57.614  -5.631  1.00  0.00    -0.062 C 
HETATM   30  C1  UNL     1       5.047  58.518  -4.600  1.00  0.00     0.045 C 
BRANCH  29  31
HETATM   31  C30 UNL     1       2.957  57.307  -5.421  1.00  0.00     0.198 C 
BRANCH  31  32
HETATM   32  O3  UNL     1       2.816  55.985  -4.911  1.00  0.00    -0.397 OA
HETATM   33  H48 UNL     1       2.927  55.378  -5.661  1.00  0.00     0.209 HD
ENDBRANCH  31  32
ENDBRANCH  29  31
ENDBRANCH  27  28
BRANCH  27  34
HETATM   34  O1  UNL     1       4.391  54.949  -7.229  1.00  0.00    -0.392 OA
HETATM   35  H6  UNL     1       5.102  54.669  -6.627  1.00  0.00     0.210 HD
ENDBRANCH  27  34
ENDBRANCH  26  27
ENDBRANCH  24  26
ENDBRANCH   1  24
TORSDOF 7
ENDMDL
