MODEL 1
REMARK minimizedAffinity -8.17664528
REMARK CNNscore 0.810458541
REMARK CNNaffinity 6.45786667
REMARK  8 active torsions:
REMARK  status: ('A' for Active; 'I' for Inactive)
REMARK    1  A    between atoms: C2_2  and  C30_34 
REMARK    2  A    between atoms: C3_3  and  C4_4 
REMARK    3  A    between atoms: C4_4  and  O1_5 
REMARK    4  A    between atoms: C4_4  and  C5_6 
REMARK    5  A    between atoms: C5_6  and  C6_7 
REMARK    6  A    between atoms: C6_7  and  C8_9 
REMARK    7  A    between atoms: C10_11  and  O2_12 
REMARK    8  A    between atoms: C30_34  and  O6_36 
ROOT
HETATM    1  C8  UNL     1     -12.931  45.681 -27.618  1.00  0.00     0.001 C 
HETATM    2  C9  UNL     1     -13.193  44.446 -28.528  1.00  0.00     0.038 C 
HETATM    3  C10 UNL     1     -12.035  44.386 -29.543  1.00  0.00     0.131 C 
HETATM    4  C11 UNL     1     -10.921  45.259 -28.907  1.00  0.00     0.014 C 
HETATM    5  C12 UNL     1     -10.187  44.409 -27.819  1.00  0.00     0.023 C 
HETATM    6  C13 UNL     1      -9.798  45.815 -29.782  1.00  0.00    -0.058 C 
HETATM    7  C14 UNL     1      -9.126  46.942 -29.427  1.00  0.00    -0.000 C 
HETATM    8  C15 UNL     1      -9.605  47.724 -28.209  1.00  0.00     0.157 C 
HETATM    9  O3  UNL     1      -8.969  48.690 -27.790  1.00  0.00    -0.293 OA
HETATM   10  C16 UNL     1     -10.887  47.321 -27.485  1.00  0.00     0.094 C 
HETATM   11  C17 UNL     1     -11.790  46.450 -28.358  1.00  0.00    -0.019 C 
HETATM   12  C18 UNL     1     -12.379  47.350 -29.484  1.00  0.00     0.017 C 
HETATM   13  C19 UNL     1      -7.897  47.478 -30.205  1.00  0.00    -0.008 C 
HETATM   14  C20 UNL     1      -8.372  48.747 -30.953  1.00  0.00     0.021 C 
HETATM   15  C21 UNL     1      -6.725  47.863 -29.245  1.00  0.00     0.022 C 
HETATM   16  C22 UNL     1      -5.316  47.731 -29.816  1.00  0.00     0.080 C 
HETATM   17  C23 UNL     1      -5.297  47.842 -31.320  1.00  0.00     0.135 C 
HETATM   18  O4  UNL     1      -4.576  48.663 -31.886  1.00  0.00    -0.297 OA
HETATM   19  C24 UNL     1      -6.147  46.825 -32.090  1.00  0.00     0.018 C 
HETATM   20  C25 UNL     1      -6.570  47.418 -33.446  1.00  0.00     0.023 C 
HETATM   21  C26 UNL     1      -5.228  45.618 -32.382  1.00  0.00     0.023 C 
HETATM   22  C27 UNL     1      -7.341  46.371 -31.180  1.00  0.00     0.014 C 
HETATM   23  C28 UNL     1      -8.475  45.694 -31.957  1.00  0.00     0.011 C 
HETATM   24  C29 UNL     1      -9.440  45.001 -31.002  1.00  0.00     0.036 C 
ENDROOT
BRANCH   1  25
HETATM   25  C6  UNL     1     -14.236  46.363 -27.109  1.00  0.00    -0.011 C 
HETATM   26  C7  UNL     1     -14.212  46.932 -25.686  1.00  0.00     0.010 C 
BRANCH  25  27
HETATM   27  C5  UNL     1     -15.469  45.452 -27.313  1.00  0.00     0.040 C 
BRANCH  27  28
HETATM   28  C4  UNL     1     -15.957  44.702 -26.063  1.00  0.00     0.142 C 
BRANCH  28  29
HETATM   29  C3  UNL     1     -17.172  45.312 -25.421  1.00  0.00     0.018 C 
HETATM   30  C2  UNL     1     -18.457  45.290 -25.836  1.00  0.00     0.010 C 
HETATM   31  C1  UNL     1     -18.954  44.680 -27.115  1.00  0.00     0.055 C 
BRANCH  30  32
HETATM   32  C30 UNL     1     -19.524  45.932 -25.022  1.00  0.00     0.171 C 
HETATM   33  O5  UNL     1     -19.763  47.126 -24.987  1.00  0.00    -0.646 OA
BRANCH  32  34
HETATM   34  O6  UNL     1     -20.243  45.068 -24.285  1.00  0.00    -0.773 OA
HETATM   35  H44 UNL     1     -20.886  45.648 -23.825  1.00  0.00     0.167 HD
ENDBRANCH  32  34
ENDBRANCH  30  32
ENDBRANCH  28  29
BRANCH  28  36
HETATM   36  O1  UNL     1     -16.214  43.349 -26.423  1.00  0.00    -0.392 OA
HETATM   37  H6  UNL     1     -16.549  42.900 -25.627  1.00  0.00     0.210 HD
ENDBRANCH  28  36
ENDBRANCH  27  28
ENDBRANCH  25  27
ENDBRANCH   1  25
BRANCH   3  38
HETATM   38  O2  UNL     1     -11.637  43.042 -29.771  1.00  0.00    -0.394 OA
HETATM   39  H17 UNL     1     -12.427  42.541 -30.034  1.00  0.00     0.210 HD
ENDBRANCH   3  38
TORSDOF 8
ENDMDL
