MODEL 1
REMARK minimizedAffinity -8.39985943
REMARK CNNscore 0.363250971
REMARK CNNaffinity 7.12287521
REMARK  15 active torsions:
REMARK  status: ('A' for Active; 'I' for Inactive)
REMARK    1  A    between atoms: C2_2  and  C36_45 
REMARK    2  A    between atoms: C3_3  and  C4_4 
REMARK    3  A    between atoms: C4_4  and  C5_5 
REMARK    4  A    between atoms: C5_5  and  C6_6 
REMARK    5  A    between atoms: C6_6  and  C8_8 
REMARK    6  A    between atoms: C24_27  and  C26_29 
REMARK    7  A    between atoms: C26_29  and  O4_30 
REMARK    8  A    between atoms: O4_30  and  C27_31 
REMARK    9  A    between atoms: C27_31  and  C28_33 
REMARK   10  A    between atoms: C28_33  and  C29_34 
REMARK   11  A    between atoms: C29_34  and  O6_36 
REMARK   12  A    between atoms: C29_34  and  C31_37 
REMARK   13  A    between atoms: C31_37  and  C32_38 
REMARK   14  A    between atoms: C32_38  and  O8_40 
REMARK   15  A    between atoms: C36_45  and  O11_47 
ROOT
HETATM    1  C8  UNL     1      -7.728   7.661  14.839  1.00  0.00     0.006 C 
HETATM    2  C9  UNL     1      -6.940   8.815  15.501  1.00  0.00     0.085 C 
HETATM    3  C10 UNL     1      -5.522   8.621  14.965  1.00  0.00     0.141 C 
HETATM    4  O1  UNL     1      -4.557   9.196  15.446  1.00  0.00    -0.297 OA
HETATM    5  C11 UNL     1      -5.509   7.596  13.816  1.00  0.00     0.056 C 
HETATM    6  C12 UNL     1      -5.928   8.377  12.539  1.00  0.00     0.030 C 
HETATM    7  C13 UNL     1      -4.304   6.768  13.424  1.00  0.00     0.015 C 
HETATM    8  C14 UNL     1      -4.379   5.486  12.982  1.00  0.00     0.007 C 
HETATM    9  C15 UNL     1      -5.762   4.844  12.935  1.00  0.00     0.157 C 
HETATM   10  O2  UNL     1      -5.909   3.692  12.530  1.00  0.00    -0.293 OA
HETATM   11  C16 UNL     1      -6.991   5.624  13.387  1.00  0.00     0.094 C 
HETATM   12  C17 UNL     1      -6.605   6.653  14.443  1.00  0.00    -0.014 C 
HETATM   13  C18 UNL     1      -6.099   5.873  15.700  1.00  0.00     0.018 C 
HETATM   14  C19 UNL     1      -3.154   4.625  12.538  1.00  0.00    -0.007 C 
HETATM   15  C20 UNL     1      -2.918   3.605  13.679  1.00  0.00     0.021 C 
HETATM   16  C21 UNL     1      -3.393   3.895  11.185  1.00  0.00     0.022 C 
HETATM   17  C22 UNL     1      -2.162   3.254  10.537  1.00  0.00     0.080 C 
HETATM   18  C23 UNL     1      -0.893   3.439  11.330  1.00  0.00     0.137 C 
HETATM   19  O3  UNL     1      -0.133   2.482  11.501  1.00  0.00    -0.297 OA
HETATM   20  C24 UNL     1      -0.574   4.834  11.871  1.00  0.00     0.044 C 
HETATM   21  C25 UNL     1       0.420   4.685  13.044  1.00  0.00     0.026 C 
HETATM   22  C33 UNL     1      -1.914   5.552  12.277  1.00  0.00     0.023 C 
HETATM   23  C34 UNL     1      -1.746   6.564  13.408  1.00  0.00     0.090 C 
HETATM   24  C35 UNL     1      -2.971   7.440  13.417  1.00  0.00     0.158 C 
HETATM   25  O9  UNL     1      -2.871   8.663  13.368  1.00  0.00    -0.293 OA
ENDROOT
BRANCH  20  26
HETATM   26  C26 UNL     1       0.092   5.654  10.733  1.00  0.00     0.196 C 
BRANCH  26  27
HETATM   27  O4  UNL     1       1.336   6.274  11.096  1.00  0.00    -0.320 OA
BRANCH  27  28
HETATM   28  C27 UNL     1       1.432   7.615  10.905  1.00  0.00     0.261 C 
HETATM   29  O5  UNL     1       0.520   8.336  10.518  1.00  0.00    -0.265 OA
BRANCH  28  30
HETATM   30  C28 UNL     1       2.799   8.130  11.277  1.00  0.00     0.148 C 
BRANCH  30  31
HETATM   31  C29 UNL     1       3.896   7.826  10.245  1.00  0.00     0.072 C 
HETATM   32  C30 UNL     1       3.290   8.044   8.846  1.00  0.00     0.047 C 
BRANCH  31  33
HETATM   33  O6  UNL     1       4.932   8.800  10.418  1.00  0.00    -0.389 OA
HETATM   34  H41 UNL     1       5.633   8.606   9.761  1.00  0.00     0.210 HD
ENDBRANCH  31  33
BRANCH  31  35
HETATM   35  C31 UNL     1       4.460   6.399  10.401  1.00  0.00     0.147 C 
BRANCH  35  36
HETATM   36  C32 UNL     1       5.809   6.374  11.066  1.00  0.00     0.142 C 
HETATM   37  O7  UNL     1       6.892   6.448  10.506  1.00  0.00    -0.650 OA
BRANCH  36  38
HETATM   38  O8  UNL     1       5.737   6.288  12.409  1.00  0.00    -0.776 OA
HETATM   39  H44 UNL     1       6.671   6.329  12.701  1.00  0.00     0.167 HD
ENDBRANCH  36  38
ENDBRANCH  35  36
ENDBRANCH  31  35
ENDBRANCH  30  31
ENDBRANCH  28  30
ENDBRANCH  27  28
ENDBRANCH  26  27
ENDBRANCH  20  26
BRANCH   1  40
HETATM   40  C6  UNL     1      -8.981   7.152  15.614  1.00  0.00    -0.013 C 
HETATM   41  C7  UNL     1     -10.100   6.884  14.582  1.00  0.00     0.010 C 
BRANCH  40  42
HETATM   42  C5  UNL     1      -9.508   8.103  16.719  1.00  0.00     0.008 C 
BRANCH  42  43
HETATM   43  C4  UNL     1     -10.800   8.860  16.366  1.00  0.00     0.028 C 
BRANCH  43  44
HETATM   44  C3  UNL     1     -11.137   8.873  14.900  1.00  0.00    -0.013 C 
HETATM   45  C2  UNL     1     -12.259   9.365  14.343  1.00  0.00     0.008 C 
HETATM   46  C1  UNL     1     -13.372  10.035  15.098  1.00  0.00     0.055 C 
BRANCH  45  47
HETATM   47  C36 UNL     1     -12.492   9.267  12.877  1.00  0.00     0.171 C 
HETATM   48  O10 UNL     1     -13.492   8.814  12.350  1.00  0.00    -0.646 OA
BRANCH  47  49
HETATM   49  O11 UNL     1     -11.477   9.749  12.135  1.00  0.00    -0.773 OA
HETATM   50  H48 UNL     1     -11.790   9.607  11.219  1.00  0.00     0.167 HD
ENDBRANCH  47  49
ENDBRANCH  45  47
ENDBRANCH  43  44
ENDBRANCH  42  43
ENDBRANCH  40  42
ENDBRANCH   1  40
TORSDOF 15
ENDMDL
