MODEL 1
REMARK minimizedAffinity -7.89773178
REMARK CNNscore 0.817643106
REMARK CNNaffinity 7.04463434
REMARK  6 active torsions:
REMARK  status: ('A' for Active; 'I' for Inactive)
REMARK    1  A    between atoms: O1_2  and  C2_3 
REMARK    2  A    between atoms: C17_20  and  C18_21 
REMARK    3  A    between atoms: C22_27  and  O6_28 
REMARK    4  A    between atoms: O6_28  and  C23_29 
REMARK    5  A    between atoms: C26_33  and  O8_34 
REMARK    6  A    between atoms: C31_40  and  O10_41 
ROOT
HETATM    1  C2  UNL     1       7.339  55.293  -3.564  1.00  0.00     0.190 C 
HETATM    2  C3  UNL     1       8.794  55.406  -3.081  1.00  0.00     0.064 C 
HETATM    3  C4  UNL     1       9.680  56.200  -4.035  1.00  0.00     0.174 C 
HETATM    4  O2  UNL     1       9.363  55.887  -5.380  1.00  0.00    -0.356 OA
HETATM    5  C5  UNL     1       8.078  56.385  -5.785  1.00  0.00     0.325 C 
HETATM    6  O3  UNL     1       7.736  55.726  -7.013  1.00  0.00    -0.344 OA
HETATM    7  C6  UNL     1       6.405  55.230  -7.050  1.00  0.00     0.177 C 
HETATM    8  C7  UNL     1       6.053  54.953  -8.482  1.00  0.00     0.011 C 
HETATM    9  C8  UNL     1       4.860  55.235  -9.040  1.00  0.00    -0.072 C 
HETATM   10  C9  UNL     1       4.608  54.952 -10.499  1.00  0.00     0.035 C 
HETATM   11  C10 UNL     1       3.362  54.092 -10.688  1.00  0.00     0.012 C 
HETATM   12  C11 UNL     1       2.116  54.709 -10.010  1.00  0.00     0.026 C 
HETATM   13  C12 UNL     1       2.405  54.961  -8.503  1.00  0.00     0.005 C 
HETATM   14  C13 UNL     1       1.156  55.513  -7.798  1.00  0.00     0.007 C 
HETATM   15  C14 UNL     1      -0.042  54.589  -7.981  1.00  0.00     0.013 C 
HETATM   16  C15 UNL     1      -0.419  54.347  -9.471  1.00  0.00    -0.003 C 
HETATM   17  C16 UNL     1      -1.051  55.640 -10.023  1.00  0.00     0.019 C 
HETATM   18  C17 UNL     1      -1.393  53.120  -9.541  1.00  0.00     0.058 C 
HETATM   19  C22 UNL     1      -0.433  51.899  -9.454  1.00  0.00     0.143 C 
HETATM   20  C25 UNL     1       0.948  52.369  -9.943  1.00  0.00     0.072 C 
HETATM   21  C26 UNL     1       0.829  53.869 -10.271  1.00  0.00     0.072 C 
HETATM   22  C27 UNL     1       3.691  55.842  -8.255  1.00  0.00    -0.014 C 
HETATM   23  C28 UNL     1       3.499  57.304  -8.728  1.00  0.00     0.020 C 
HETATM   24  C29 UNL     1       4.003  55.866  -6.727  1.00  0.00     0.049 C 
HETATM   25  C30 UNL     1       5.450  56.248  -6.420  1.00  0.00     0.159 C 
HETATM   26  O9  UNL     1       5.624  56.260  -5.000  1.00  0.00    -0.341 OA
HETATM   27  C31 UNL     1       7.000  56.381  -4.616  1.00  0.00     0.240 C 
ENDROOT
BRANCH  18  28
HETATM   28  C18 UNL     1      -2.418  53.042 -10.651  1.00  0.00    -0.043 A 
HETATM   29  C19 UNL     1      -2.174  52.553 -11.869  1.00  0.00     0.087 A 
HETATM   30  C20 UNL     1      -3.371  52.760 -12.677  1.00  0.00     0.283 A 
HETATM   31  O4  UNL     1      -3.491  52.435 -13.844  1.00  0.00    -0.260 OA
HETATM   32  O5  UNL     1      -4.305  53.395 -11.925  1.00  0.00    -0.314 OA
HETATM   33  C21 UNL     1      -3.806  53.561 -10.593  1.00  0.00     0.214 A 
ENDBRANCH  18  28
BRANCH  19  34
HETATM   34  O6  UNL     1      -0.859  50.758 -10.213  1.00  0.00    -0.316 OA
BRANCH  34  35
HETATM   35  C23 UNL     1      -1.136  49.642  -9.481  1.00  0.00     0.255 C 
HETATM   36  C24 UNL     1      -2.055  49.984  -8.349  1.00  0.00     0.126 C 
HETATM   37  O7  UNL     1      -0.675  48.527  -9.686  1.00  0.00    -0.266 OA
ENDBRANCH  34  35
ENDBRANCH  19  34
BRANCH  21  38
HETATM   38  O8  UNL     1       0.535  53.971 -11.670  1.00  0.00    -0.389 OA
HETATM   39  H35 UNL     1       1.240  53.537 -12.181  1.00  0.00     0.210 HD
ENDBRANCH  21  38
BRANCH  27  40
HETATM   40  O10 UNL     1       7.054  57.655  -3.947  1.00  0.00    -0.360 OA
HETATM   41  H42 UNL     1       6.206  57.692  -3.473  1.00  0.00     0.213 HD
ENDBRANCH  27  40
BRANCH   1  42
HETATM   42  O1  UNL     1       7.093  53.985  -4.111  1.00  0.00    -0.385 OA
HETATM   43  C1  UNL     1       7.751  52.945  -3.399  1.00  0.00     0.202 C 
ENDBRANCH   1  42
TORSDOF 6
ENDMDL
