MODEL 1
REMARK minimizedAffinity -8.4214716
REMARK  12 active torsions:
REMARK  status: ('A' for Active; 'I' for Inactive)
REMARK    1  A    between atoms: C2_2  and  C3_3 
REMARK    2  A    between atoms: C2_2  and  C15_20 
REMARK    3  A    between atoms: C3_3  and  O1_4 
REMARK    4  A    between atoms: C3_3  and  C4_5 
REMARK    5  A    between atoms: C4_5  and  C6_7 
REMARK    6  A    between atoms: C6_7  and  O2_8 
REMARK    7  A    between atoms: C6_7  and  C7_9 
REMARK    8  A    between atoms: C7_9  and  C9_11 
REMARK    9  A    between atoms: C10_12  and  C11_13 
REMARK   10  A    between atoms: C12_14  and  C13_15 
REMARK   11  A    between atoms: C12_14  and  C14_17 
REMARK   12  A    between atoms: C13_15  and  O3_16 
REMARK       I    between atoms: C14_17  and  N1_18 
ROOT
HETATM    1  C4  UNL     1      -0.816   3.923  12.136  1.00  0.00     0.040 C 
HETATM    2  C5  UNL     1      -0.711   2.568  11.431  1.00  0.00     0.015 C 
ENDROOT
BRANCH   1   3
HETATM    3  C3  UNL     1       0.364   4.888  11.785  1.00  0.00     0.130 C 
BRANCH   3   4
HETATM    4  C2  UNL     1       0.080   6.271  11.120  1.00  0.00     0.040 C 
HETATM    5  C1  UNL     1      -0.481   7.300  12.104  1.00  0.00     0.015 C 
BRANCH   4   6
HETATM    6  C15 UNL     1       1.386   6.812  10.444  1.00  0.00     0.137 C 
HETATM    7  O5  UNL     1       1.446   6.297   9.102  1.00  0.00    -0.349 OA
HETATM    8  C16 UNL     1       2.695   6.507   8.439  1.00  0.00     0.161 C 
HETATM    9  C17 UNL     1       2.602   5.877   7.061  1.00  0.00     0.079 C 
HETATM   10  C18 UNL     1       3.097   7.981   8.392  1.00  0.00     0.071 C 
HETATM   11  O6  UNL     1       3.744   5.883   9.186  1.00  0.00    -0.350 OA
HETATM   12  C19 UNL     1       3.940   8.147   9.653  1.00  0.00     0.038 C 
HETATM   13  C20 UNL     1       3.906   6.767  10.305  1.00  0.00     0.131 C 
HETATM   14  C21 UNL     1       2.695   6.512  11.221  1.00  0.00     0.040 C 
HETATM   15  C22 UNL     1       2.799   7.293  12.529  1.00  0.00     0.015 C 
ENDBRANCH   4   6
ENDBRANCH   3   4
BRANCH   3  16
HETATM   16  O1  UNL     1       1.183   4.154  10.843  1.00  0.00    -0.395 OA
HETATM   17  H6  UNL     1       1.640   3.454  11.343  1.00  0.00     0.210 HD
ENDBRANCH   3  16
ENDBRANCH   1   3
BRANCH   1  18
HETATM   18  C6  UNL     1      -2.213   4.591  12.006  1.00  0.00     0.131 C 
BRANCH  18  19
HETATM   19  O2  UNL     1      -2.953   3.942  10.976  1.00  0.00    -0.394 OA
HETATM   20  H12 UNL     1      -3.658   4.549  10.688  1.00  0.00     0.210 HD
ENDBRANCH  18  19
BRANCH  18  21
HETATM   21  C7  UNL     1      -3.071   4.596  13.310  1.00  0.00     0.033 C 
HETATM   22  C8  UNL     1      -2.401   5.356  14.460  1.00  0.00     0.017 C 
BRANCH  21  23
HETATM   23  C9  UNL     1      -4.483   5.094  13.015  1.00  0.00    -0.020 C 
HETATM   24  C10 UNL     1      -5.306   5.749  13.851  1.00  0.00    -0.003 C 
BRANCH  24  25
HETATM   25  C11 UNL     1      -6.651   6.139  13.474  1.00  0.00     0.014 C 
HETATM   26  C12 UNL     1      -7.757   6.095  14.244  1.00  0.00     0.033 C 
BRANCH  26  27
HETATM   27  C13 UNL     1      -9.153   6.397  13.777  1.00  0.00     0.208 C 
BRANCH  27  28
HETATM   28  O3  UNL     1     -10.068   6.511  14.863  1.00  0.00    -0.396 OA
HETATM   29  H22 UNL     1      -9.919   7.391  15.253  1.00  0.00     0.209 HD
ENDBRANCH  27  28
ENDBRANCH  26  27
BRANCH  26  30
HETATM   30  C14 UNL     1      -7.722   5.685  15.671  1.00  0.00     0.247 C 
HETATM   31  N1  UNL     1      -7.979   4.370  15.896  1.00  0.00    -0.366 N 
HETATM   32  H23 UNL     1      -7.903   4.029  16.843  1.00  0.00     0.159 HD
HETATM   33  H24 UNL     1      -8.140   3.710  15.149  1.00  0.00     0.159 HD
HETATM   34  O4  UNL     1      -7.417   6.457  16.567  1.00  0.00    -0.268 OA
ENDBRANCH  26  30
ENDBRANCH  24  25
ENDBRANCH  21  23
ENDBRANCH  18  21
ENDBRANCH   1  18
TORSDOF 12
ENDMDL
