MODEL 1
REMARK minimizedAffinity -9.69039059
REMARK  8 active torsions:
REMARK  status: ('A' for Active; 'I' for Inactive)
REMARK    1  A    between atoms: C12_14  and  C13_15 
REMARK    2  A    between atoms: C13_15  and  C15_17 
REMARK    3  A    between atoms: C15_17  and  C16_18 
REMARK    4  A    between atoms: C16_18  and  C17_19 
REMARK    5  A    between atoms: C26_28  and  C27_29 
REMARK    6  A    between atoms: C27_29  and  C28_30 
REMARK    7  A    between atoms: C28_30  and  C29_31 
REMARK    8  A    between atoms: C29_31  and  O4_33 
ROOT
HETATM    1  C1  UNL     1       1.336  54.182 -21.442  1.00  0.00     0.025 C 
HETATM    2  C2  UNL     1       0.675  53.056 -21.145  1.00  0.00     0.015 C 
HETATM    3  C3  UNL     1      -0.045  52.934 -19.858  1.00  0.00     0.289 C 
HETATM    4  O1  UNL     1      -0.368  53.844 -19.118  1.00  0.00    -0.260 OA
HETATM    5  O2  UNL     1      -0.273  51.615 -19.639  1.00  0.00    -0.311 OA
HETATM    6  C4  UNL     1       0.396  50.837 -20.643  1.00  0.00     0.142 C 
HETATM    7  C5  UNL     1      -0.401  49.575 -20.922  1.00  0.00     0.039 C 
HETATM    8  C6  UNL     1      -1.804  49.911 -21.447  1.00  0.00     0.006 C 
HETATM    9  C7  UNL     1      -1.694  50.677 -22.789  1.00  0.00    -0.027 A 
HETATM   10  C8  UNL     1      -2.337  49.998 -24.012  1.00  0.00     0.011 C 
HETATM   11  C9  UNL     1      -3.670  49.258 -23.800  1.00  0.00     0.011 C 
HETATM   12  C10 UNL     1      -4.047  49.049 -22.331  1.00  0.00    -0.032 C 
HETATM   13  C11 UNL     1      -4.732  50.343 -21.819  1.00  0.00     0.016 C 
HETATM   14  C12 UNL     1      -4.952  47.809 -22.051  1.00  0.00    -0.002 C 
HETATM   15  C21 UNL     1      -4.640  47.448 -20.579  1.00  0.00     0.006 C 
HETATM   16  C22 UNL     1      -3.352  48.212 -20.198  1.00  0.00     0.011 C 
HETATM   17  C23 UNL     1      -2.743  48.669 -21.540  1.00  0.00    -0.032 C 
HETATM   18  C24 UNL     1      -1.958  47.441 -22.112  1.00  0.00     0.016 C 
HETATM   19  C25 UNL     1      -1.816  52.188 -22.761  1.00  0.00     0.022 A 
HETATM   20  C26 UNL     1      -0.442  51.603 -22.987  1.00  0.00    -0.021 A 
HETATM   21  C30 UNL     1       0.610  51.740 -21.855  1.00  0.00     0.063 C 
ENDROOT
BRANCH  14  22
HETATM   22  C13 UNL     1      -6.434  47.736 -22.522  1.00  0.00    -0.014 C 
HETATM   23  C14 UNL     1      -7.229  48.887 -21.876  1.00  0.00     0.010 C 
BRANCH  22  24
HETATM   24  C15 UNL     1      -6.820  47.581 -24.014  1.00  0.00     0.008 C 
BRANCH  24  25
HETATM   25  C16 UNL     1      -5.940  48.168 -25.126  1.00  0.00     0.028 C 
BRANCH  25  26
HETATM   26  C17 UNL     1      -6.305  47.712 -26.512  1.00  0.00    -0.025 C 
HETATM   27  C18 UNL     1      -5.589  47.846 -27.646  1.00  0.00    -0.091 C 
HETATM   28  C19 UNL     1      -6.134  47.340 -28.956  1.00  0.00     0.042 C 
HETATM   29  C20 UNL     1      -4.223  48.465 -27.746  1.00  0.00     0.042 C 
ENDBRANCH  25  26
ENDBRANCH  24  25
ENDBRANCH  22  24
ENDBRANCH  14  22
BRANCH  20  30
HETATM   30  C27 UNL     1       0.159  51.620 -24.405  1.00  0.00     0.021 C 
BRANCH  30  31
HETATM   31  C28 UNL     1       0.733  52.943 -24.895  1.00  0.00     0.111 C 
BRANCH  31  32
HETATM   32  C29 UNL     1      -0.182  53.675 -25.840  1.00  0.00     0.139 C 
HETATM   33  O3  UNL     1      -1.168  53.242 -26.408  1.00  0.00    -0.650 OA
BRANCH  32  34
HETATM   34  O4  UNL     1       0.248  54.931 -26.079  1.00  0.00    -0.776 OA
HETATM   35  H43 UNL     1      -0.409  55.288 -26.713  1.00  0.00     0.167 HD
ENDBRANCH  32  34
ENDBRANCH  31  32
ENDBRANCH  30  31
ENDBRANCH  20  30
TORSDOF 8
ENDMDL
