MODEL 1
REMARK minimizedAffinity -7.38984823
REMARK CNNscore 0.583011508
REMARK CNNaffinity 7.07002211
REMARK  4 active torsions:
REMARK  status: ('A' for Active; 'I' for Inactive)
REMARK    1  A    between atoms: C2_2  and  C4_4 
REMARK    2  A    between atoms: C4_4  and  C5_5 
REMARK    3  A    between atoms: C5_5  and  O1_6 
REMARK    4  A    between atoms: C8_9  and  C9_10 
ROOT
HETATM    1  C9  UNL     1      -1.153  52.872 -11.677  1.00  0.00     0.001 C 
HETATM    2  C10 UNL     1      -2.302  52.605 -10.668  1.00  0.00     0.007 C 
HETATM    3  C11 UNL     1      -1.884  53.241  -9.329  1.00  0.00     0.011 C 
HETATM    4  C12 UNL     1      -0.698  54.165  -9.673  1.00  0.00    -0.032 C 
HETATM    5  C13 UNL     1      -1.322  55.504 -10.181  1.00  0.00     0.016 C 
HETATM    6  C14 UNL     1       0.276  54.435  -8.496  1.00  0.00     0.004 C 
HETATM    7  C15 UNL     1      -0.301  55.335  -7.392  1.00  0.00     0.007 C 
HETATM    8  C16 UNL     1       0.697  55.463  -6.241  1.00  0.00     0.007 C 
HETATM    9  C17 UNL     1       1.919  56.279  -6.688  1.00  0.00     0.010 C 
HETATM   10  C18 UNL     1       3.038  56.442  -5.606  1.00  0.00     0.018 C 
HETATM   11  C19 UNL     1       3.412  55.129  -4.898  1.00  0.00     0.023 C 
HETATM   12  C20 UNL     1       2.596  57.463  -4.541  1.00  0.00     0.023 C 
HETATM   13  C21 UNL     1       4.299  57.015  -6.276  1.00  0.00     0.135 C 
HETATM   14  O2  UNL     1       5.416  56.947  -5.761  1.00  0.00    -0.297 OA
HETATM   15  C22 UNL     1       4.094  57.761  -7.571  1.00  0.00     0.080 C 
HETATM   16  C23 UNL     1       3.478  56.844  -8.619  1.00  0.00     0.018 C 
HETATM   17  C24 UNL     1       2.510  55.820  -8.027  1.00  0.00    -0.026 A 
HETATM   18  C25 UNL     1       2.851  54.366  -8.249  1.00  0.00     0.021 A 
HETATM   19  C26 UNL     1       1.656  54.944  -8.986  1.00  0.00    -0.027 A 
HETATM   20  C27 UNL     1       1.825  55.171 -10.491  1.00  0.00     0.011 C 
HETATM   21  C28 UNL     1       1.097  54.203 -11.442  1.00  0.00     0.011 C 
HETATM   22  C29 UNL     1       0.041  53.313 -10.773  1.00  0.00    -0.032 C 
HETATM   23  C30 UNL     1       0.770  52.059 -10.211  1.00  0.00     0.016 C 
ENDROOT
BRANCH   1  24
HETATM   24  C8  UNL     1      -1.011  51.782 -12.773  1.00  0.00     0.014 C 
HETATM   25  C7  UNL     1      -2.274  51.572 -13.610  1.00  0.00     0.010 C 
HETATM   26  C6  UNL     1      -2.106  50.322 -14.468  1.00  0.00     0.041 C 
HETATM   27  C4  UNL     1      -0.794  50.342 -15.304  1.00  0.00     0.085 C 
HETATM   28  O3  UNL     1      -0.027  51.535 -15.039  1.00  0.00    -0.377 OA
HETATM   29  C31 UNL     1       0.237  51.837 -13.666  1.00  0.00     0.174 C 
BRANCH  27  30
HETATM   30  C2  UNL     1      -1.144  50.365 -16.837  1.00  0.00     0.014 C 
HETATM   31  C1  UNL     1      -0.251  51.285 -17.683  1.00  0.00     0.012 C 
HETATM   32  C3  UNL     1      -2.605  50.780 -17.094  1.00  0.00     0.012 C 
ENDBRANCH  27  30
BRANCH  27  33
HETATM   33  C5  UNL     1       0.059  49.097 -14.927  1.00  0.00     0.202 C 
BRANCH  33  34
HETATM   34  O1  UNL     1       0.321  48.261 -16.052  1.00  0.00    -0.398 OA
HETATM   35  H10 UNL     1       0.326  48.853 -16.828  1.00  0.00     0.209 HD
ENDBRANCH  33  34
ENDBRANCH  27  33
ENDBRANCH   1  24
TORSDOF 4
ENDMDL
