MODEL 1
REMARK minimizedAffinity -8.51620579
REMARK CNNscore 0.644906044
REMARK CNNaffinity 7.57075357
REMARK  15 active torsions:
REMARK  status: ('A' for Active; 'I' for Inactive)
REMARK    1  A    between atoms: C19_20  and  O2_21 
REMARK    2  A    between atoms: C19_20  and  C20_22 
REMARK    3  A    between atoms: C20_22  and  C21_24 
REMARK    4  A    between atoms: C21_24  and  O4_25 
REMARK    5  A    between atoms: O4_25  and  C22_26 
REMARK    6  A    between atoms: C22_26  and  C23_28 
REMARK    7  A    between atoms: C23_28  and  C24_29 
REMARK    8  A    between atoms: C24_29  and  C25_30 
REMARK       I    between atoms: C25_30  and  N1_32 
REMARK    9  A    between atoms: N1_32  and  C26_33 
REMARK   10  A    between atoms: C26_33  and  C27_34 
REMARK   11  A    between atoms: C27_34  and  C28_35 
REMARK   12  A    between atoms: C28_35  and  C29_36 
REMARK   13  A    between atoms: C29_36  and  C30_37 
REMARK   14  A    between atoms: C30_37  and  C31_38 
REMARK   15  A    between atoms: C31_38  and  O8_40 
ROOT
HETATM    1  C1  UNL     1       2.041   8.103  11.673  1.00  0.00     0.020 C 
HETATM    2  C2  UNL     1       1.135   8.351  12.924  1.00  0.00    -0.016 C 
HETATM    3  C3  UNL     1       1.737   9.648  13.541  1.00  0.00     0.022 C 
HETATM    4  C4  UNL     1       1.464   9.866  15.021  1.00  0.00     0.084 C 
HETATM    5  C5  UNL     1       1.793   8.634  15.820  1.00  0.00     0.149 C 
HETATM    6  O1  UNL     1       2.144   8.693  16.996  1.00  0.00    -0.293 OA
HETATM    7  C6  UNL     1       1.606   7.312  15.184  1.00  0.00     0.053 C 
HETATM    8  C7  UNL     1       1.284   7.179  13.885  1.00  0.00    -0.068 C 
HETATM    9  C8  UNL     1       0.950   5.813  13.332  1.00  0.00     0.035 C 
HETATM   10  C9  UNL     1      -0.205   5.848  12.327  1.00  0.00     0.010 C 
HETATM   11  C10 UNL     1      -1.148   7.050  12.505  1.00  0.00    -0.004 C 
HETATM   12  C11 UNL     1      -0.378   8.429  12.433  1.00  0.00     0.002 C 
HETATM   13  C12 UNL     1      -1.247   9.611  12.944  1.00  0.00     0.007 C 
HETATM   14  C13 UNL     1      -2.138   9.343  14.164  1.00  0.00     0.013 C 
HETATM   15  C14 UNL     1      -2.994   8.078  13.998  1.00  0.00    -0.002 C 
HETATM   16  C15 UNL     1      -3.991   8.247  12.823  1.00  0.00     0.019 C 
HETATM   17  C16 UNL     1      -1.987   6.924  13.790  1.00  0.00     0.002 C 
HETATM   18  C17 UNL     1      -2.842   5.672  13.952  1.00  0.00     0.009 C 
HETATM   19  C18 UNL     1      -3.867   6.040  15.036  1.00  0.00     0.047 C 
HETATM   20  C19 UNL     1      -3.743   7.573  15.273  1.00  0.00     0.128 C 
ENDROOT
BRANCH  20  21
HETATM   21  O2  UNL     1      -2.922   7.771  16.426  1.00  0.00    -0.381 OA
HETATM   22  H27 UNL     1      -3.313   7.269  17.169  1.00  0.00     0.211 HD
ENDBRANCH  20  21
BRANCH  20  23
HETATM   23  C20 UNL     1      -5.115   8.240  15.530  1.00  0.00     0.185 C 
HETATM   24  O3  UNL     1      -5.229   9.453  15.725  1.00  0.00    -0.292 OA
BRANCH  23  25
HETATM   25  C21 UNL     1      -6.338   7.320  15.536  1.00  0.00     0.260 C 
BRANCH  25  26
HETATM   26  O4  UNL     1      -7.426   7.855  14.780  1.00  0.00    -0.314 OA
BRANCH  26  27
HETATM   27  C22 UNL     1      -8.436   6.967  14.562  1.00  0.00     0.259 C 
HETATM   28  O5  UNL     1      -9.629   7.238  14.601  1.00  0.00    -0.265 OA
BRANCH  27  29
HETATM   29  C23 UNL     1      -7.884   5.594  14.311  1.00  0.00     0.120 C 
BRANCH  29  30
HETATM   30  C24 UNL     1      -8.068   5.225  12.847  1.00  0.00     0.112 C 
BRANCH  30  31
HETATM   31  C25 UNL     1      -7.630   3.802  12.579  1.00  0.00     0.217 C 
HETATM   32  O6  UNL     1      -8.282   2.820  12.915  1.00  0.00    -0.274 OA
HETATM   33  N1  UNL     1      -6.418   3.724  11.921  1.00  0.00    -0.361 N 
HETATM   34  H34 UNL     1      -6.085   4.561  11.460  1.00  0.00     0.162 HD
BRANCH  33  35
HETATM   35  C26 UNL     1      -5.912   2.444  11.464  1.00  0.00     0.122 C 
BRANCH  35  36
HETATM   36  C27 UNL     1      -4.414   2.314  11.721  1.00  0.00     0.020 C 
BRANCH  36  37
HETATM   37  C28 UNL     1      -3.629   3.584  11.381  1.00  0.00     0.002 C 
BRANCH  37  38
HETATM   38  C29 UNL     1      -2.346   3.373  10.571  1.00  0.00     0.010 C 
BRANCH  38  39
HETATM   39  C30 UNL     1      -1.913   1.911  10.489  1.00  0.00     0.110 C 
BRANCH  39  40
HETATM   40  C31 UNL     1      -0.491   1.727  10.947  1.00  0.00     0.139 C 
HETATM   41  O7  UNL     1       0.311   2.595  11.248  1.00  0.00    -0.650 OA
BRANCH  40  42
HETATM   42  O8  UNL     1      -0.148   0.425  11.009  1.00  0.00    -0.776 OA
HETATM   43  H45 UNL     1       0.783   0.439  11.314  1.00  0.00     0.167 HD
ENDBRANCH  40  42
ENDBRANCH  39  40
ENDBRANCH  38  39
ENDBRANCH  37  38
ENDBRANCH  36  37
ENDBRANCH  35  36
ENDBRANCH  33  35
ENDBRANCH  30  31
ENDBRANCH  29  30
ENDBRANCH  27  29
ENDBRANCH  26  27
ENDBRANCH  25  26
ENDBRANCH  23  25
ENDBRANCH  20  23
TORSDOF 15
ENDMDL
