MODEL 1
REMARK minimizedAffinity -7.9460125
REMARK CNNscore 0.635945499
REMARK CNNaffinity 7.41169691
REMARK  19 active torsions:
REMARK  status: ('A' for Active; 'I' for Inactive)
REMARK    1  A    between atoms: C2_2  and  C3_3 
REMARK    2  A    between atoms: C3_3  and  C5_5 
REMARK    3  A    between atoms: C5_5  and  N1_6 
REMARK    4  A    between atoms: C5_5  and  C37_46 
REMARK       I    between atoms: N1_6  and  C6_7 
REMARK    5  A    between atoms: C6_7  and  C7_9 
REMARK    6  A    between atoms: C7_9  and  C8_10 
REMARK    7  A    between atoms: C8_10  and  C9_11 
REMARK    8  A    between atoms: C9_11  and  C10_12 
REMARK    9  A    between atoms: C10_12  and  C11_13 
REMARK   10  A    between atoms: C11_13  and  N2_14 
REMARK       I    between atoms: N2_14  and  C12_15 
REMARK   11  A    between atoms: C12_15  and  C13_17 
REMARK   12  A    between atoms: C13_17  and  C14_18 
REMARK   13  A    between atoms: C14_18  and  C15_19 
REMARK   14  A    between atoms: C15_19  and  O4_21 
REMARK   15  A    between atoms: O4_21  and  C16_22 
REMARK   16  A    between atoms: C16_22  and  C17_23 
REMARK   17  A    between atoms: C17_23  and  C18_25 
REMARK   18  A    between atoms: C18_25  and  O6_26 
REMARK   19  A    between atoms: C37_46  and  O9_48 
ROOT
HETATM    1  C15 UNL     1      -9.063   7.396  15.939  1.00  0.00     0.259 C 
HETATM    2  O3  UNL     1      -9.330   7.896  17.022  1.00  0.00    -0.265 OA
ENDROOT
BRANCH   1   3
HETATM    3  C14 UNL     1      -9.549   7.893  14.598  1.00  0.00     0.120 C 
BRANCH   3   4
HETATM    4  C13 UNL     1     -10.160   6.763  13.780  1.00  0.00     0.112 C 
BRANCH   4   5
HETATM    5  C12 UNL     1     -11.644   6.973  13.545  1.00  0.00     0.217 C 
HETATM    6  N2  UNL     1     -12.429   6.101  14.274  1.00  0.00    -0.361 N 
HETATM    7  H22 UNL     1     -11.979   5.253  14.592  1.00  0.00     0.162 HD
HETATM    8  O2  UNL     1     -12.090   7.863  12.825  1.00  0.00    -0.274 OA
BRANCH   6   9
HETATM    9  C11 UNL     1     -13.867   6.071  14.092  1.00  0.00     0.122 C 
BRANCH   9  10
HETATM   10  C10 UNL     1     -14.525   4.892  14.811  1.00  0.00     0.020 C 
BRANCH  10  11
HETATM   11  C9  UNL     1     -16.016   4.704  14.508  1.00  0.00     0.002 C 
BRANCH  11  12
HETATM   12  C8  UNL     1     -16.404   3.289  14.070  1.00  0.00     0.009 C 
BRANCH  12  13
HETATM   13  C7  UNL     1     -15.519   2.222  14.716  1.00  0.00     0.103 C 
BRANCH  13  14
HETATM   14  C6  UNL     1     -15.650   0.858  14.059  1.00  0.00     0.218 C 
HETATM   15  N1  UNL     1     -15.330  -0.176  14.912  1.00  0.00    -0.346 N 
HETATM   16  H11 UNL     1     -14.720   0.060  15.686  1.00  0.00     0.163 HD
HETATM   17  O1  UNL     1     -15.988   0.698  12.894  1.00  0.00    -0.274 OA
BRANCH  15  18
HETATM   18  C5  UNL     1     -15.203  -1.551  14.417  1.00  0.00     0.186 C 
BRANCH  18  19
HETATM   19  C3  UNL     1     -16.480  -2.010  13.671  1.00  0.00     0.014 C 
HETATM   20  C4  UNL     1     -16.196  -3.120  12.649  1.00  0.00     0.012 C 
BRANCH  19  21
HETATM   21  C2  UNL     1     -17.566  -2.431  14.687  1.00  0.00     0.002 C 
HETATM   22  C1  UNL     1     -18.752  -1.478  14.739  1.00  0.00     0.005 C 
ENDBRANCH  19  21
ENDBRANCH  18  19
BRANCH  18  23
HETATM   23  C37 UNL     1     -14.871  -2.517  15.563  1.00  0.00     0.163 C 
HETATM   24  O8  UNL     1     -15.509  -2.663  16.594  1.00  0.00    -0.648 OA
BRANCH  23  25
HETATM   25  O9  UNL     1     -13.714  -3.197  15.390  1.00  0.00    -0.775 OA
HETATM   26  H56 UNL     1     -13.661  -3.761  16.193  1.00  0.00     0.167 HD
ENDBRANCH  23  25
ENDBRANCH  18  23
ENDBRANCH  15  18
ENDBRANCH  13  14
ENDBRANCH  12  13
ENDBRANCH  11  12
ENDBRANCH  10  11
ENDBRANCH   9  10
ENDBRANCH   6   9
ENDBRANCH   4   5
ENDBRANCH   3   4
ENDBRANCH   1   3
BRANCH   1  27
HETATM   27  O4  UNL     1      -8.236   6.327  15.753  1.00  0.00    -0.314 OA
BRANCH  27  28
HETATM   28  C16 UNL     1      -6.979   6.453  16.420  1.00  0.00     0.260 C 
BRANCH  28  29
HETATM   29  C17 UNL     1      -6.023   7.260  15.553  1.00  0.00     0.185 C 
HETATM   30  O5  UNL     1      -5.759   8.433  15.840  1.00  0.00    -0.292 OA
BRANCH  29  31
HETATM   31  C18 UNL     1      -5.454   6.567  14.276  1.00  0.00     0.128 C 
HETATM   32  C19 UNL     1      -5.644   7.519  13.081  1.00  0.00     0.047 C 
HETATM   33  C20 UNL     1      -4.298   8.216  12.852  1.00  0.00     0.009 C 
HETATM   34  C21 UNL     1      -3.343   7.707  13.948  1.00  0.00     0.002 C 
HETATM   35  C22 UNL     1      -1.818   7.749  13.655  1.00  0.00    -0.004 C 
HETATM   36  C35 UNL     1      -3.908   6.314  14.295  1.00  0.00    -0.002 C 
HETATM   37  C23 UNL     1      -1.399   9.023  12.888  1.00  0.00     0.010 C 
HETATM   38  C32 UNL     1      -1.221   6.423  13.081  1.00  0.00     0.002 C 
HETATM   39  C24 UNL     1      -1.086   8.781  11.416  1.00  0.00     0.035 C 
HETATM   40  C25 UNL     1      -0.044   7.712  11.206  1.00  0.00    -0.068 C 
HETATM   41  C26 UNL     1       0.683   7.711  10.072  1.00  0.00     0.053 C 
HETATM   42  C30 UNL     1       0.122   6.650  12.289  1.00  0.00    -0.016 C 
HETATM   43  C27 UNL     1       1.701   6.669   9.789  1.00  0.00     0.149 C 
HETATM   44  O7  UNL     1       2.396   6.766   8.776  1.00  0.00    -0.293 OA
HETATM   45  C28 UNL     1       1.876   5.535  10.772  1.00  0.00     0.084 C 
HETATM   46  C29 UNL     1       0.617   5.339  11.614  1.00  0.00     0.022 C 
HETATM   47  C31 UNL     1       1.218   7.104  13.296  1.00  0.00     0.020 C 
HETATM   48  C33 UNL     1      -2.300   5.630  12.335  1.00  0.00     0.007 C 
HETATM   49  C34 UNL     1      -3.499   5.263  13.216  1.00  0.00     0.013 C 
HETATM   50  C36 UNL     1      -3.425   5.827  15.674  1.00  0.00     0.019 C 
BRANCH  31  51
HETATM   51  O6  UNL     1      -6.168   5.364  14.006  1.00  0.00    -0.381 OA
HETATM   52  H29 UNL     1      -5.911   4.715  14.685  1.00  0.00     0.211 HD
ENDBRANCH  31  51
ENDBRANCH  29  31
ENDBRANCH  28  29
ENDBRANCH  27  28
ENDBRANCH   1  27
TORSDOF 19
ENDMDL
