MODEL 1
REMARK minimizedAffinity -8.20267391
REMARK CNNscore 0.668162942
REMARK CNNaffinity 6.962111
REMARK  19 active torsions:
REMARK  status: ('A' for Active; 'I' for Inactive)
REMARK    1  A    between atoms: C19_20  and  O2_21 
REMARK    2  A    between atoms: C19_20  and  C20_22 
REMARK    3  A    between atoms: C20_22  and  C21_24 
REMARK    4  A    between atoms: C21_24  and  O4_25 
REMARK    5  A    between atoms: O4_25  and  C22_26 
REMARK    6  A    between atoms: C22_26  and  C23_28 
REMARK    7  A    between atoms: C23_28  and  C24_29 
REMARK    8  A    between atoms: C24_29  and  C25_30 
REMARK       I    between atoms: C25_30  and  N1_32 
REMARK    9  A    between atoms: N1_32  and  C26_33 
REMARK   10  A    between atoms: C26_33  and  C27_34 
REMARK   11  A    between atoms: C27_34  and  C28_35 
REMARK   12  A    between atoms: C28_35  and  C29_36 
REMARK   13  A    between atoms: C29_36  and  C30_37 
REMARK   14  A    between atoms: C30_37  and  C31_38 
REMARK       I    between atoms: C31_38  and  N2_40 
REMARK   15  A    between atoms: N2_40  and  C32_41 
REMARK   16  A    between atoms: C32_41  and  C33_42 
REMARK   17  A    between atoms: C33_42  and  C34_43 
REMARK   18  A    between atoms: C37_46  and  O8_47 
REMARK   19  A    between atoms: C38_48  and  O9_49 
ROOT
HETATM    1  C22 UNL     1       1.205   7.558  10.226  1.00  0.00     0.259 C 
HETATM    2  O5  UNL     1       0.746   8.648   9.926  1.00  0.00    -0.265 OA
ENDROOT
BRANCH   1   3
HETATM    3  O4  UNL     1       0.488   6.544  10.794  1.00  0.00    -0.314 OA
BRANCH   3   4
HETATM    4  C21 UNL     1      -0.573   6.975  11.634  1.00  0.00     0.260 C 
BRANCH   4   5
HETATM    5  C20 UNL     1      -0.462   6.782  13.151  1.00  0.00     0.185 C 
HETATM    6  O3  UNL     1       0.491   6.144  13.613  1.00  0.00    -0.292 OA
BRANCH   5   7
HETATM    7  C19 UNL     1      -1.483   7.519  14.077  1.00  0.00     0.128 C 
HETATM    8  C14 UNL     1      -2.753   6.660  14.426  1.00  0.00    -0.002 C 
HETATM    9  C13 UNL     1      -3.508   7.246  15.650  1.00  0.00     0.013 C 
HETATM   10  C15 UNL     1      -2.371   5.198  14.722  1.00  0.00     0.019 C 
HETATM   11  C16 UNL     1      -3.619   6.807  13.155  1.00  0.00     0.002 C 
HETATM   12  C12 UNL     1      -4.922   6.694  15.816  1.00  0.00     0.007 C 
HETATM   13  C11 UNL     1      -5.805   6.923  14.576  1.00  0.00     0.002 C 
HETATM   14  C2  UNL     1      -7.291   6.369  14.746  1.00  0.00    -0.016 C 
HETATM   15  C10 UNL     1      -5.119   6.452  13.265  1.00  0.00    -0.004 C 
HETATM   16  C1  UNL     1      -7.431   5.303  15.860  1.00  0.00     0.020 C 
HETATM   17  C3  UNL     1      -8.188   7.590  15.111  1.00  0.00     0.022 C 
HETATM   18  C7  UNL     1      -7.804   5.713  13.461  1.00  0.00    -0.068 C 
HETATM   19  C4  UNL     1      -9.681   7.312  15.011  1.00  0.00     0.084 C 
HETATM   20  C5  UNL     1     -10.025   6.782  13.643  1.00  0.00     0.149 C 
HETATM   21  O1  UNL     1     -11.130   6.955  13.132  1.00  0.00    -0.293 OA
HETATM   22  C6  UNL     1      -9.024   5.945  12.942  1.00  0.00     0.053 C 
HETATM   23  C8  UNL     1      -6.886   4.728  12.768  1.00  0.00     0.035 C 
HETATM   24  C9  UNL     1      -5.399   4.965  13.039  1.00  0.00     0.010 C 
HETATM   25  C17 UNL     1      -3.415   8.282  12.752  1.00  0.00     0.009 C 
HETATM   26  C18 UNL     1      -2.049   8.715  13.288  1.00  0.00     0.047 C 
BRANCH   7  27
HETATM   27  O2  UNL     1      -0.884   8.028  15.263  1.00  0.00    -0.381 OA
HETATM   28  H27 UNL     1      -0.686   7.283  15.857  1.00  0.00     0.211 HD
ENDBRANCH   7  27
ENDBRANCH   5   7
ENDBRANCH   4   5
ENDBRANCH   3   4
ENDBRANCH   1   3
BRANCH   1  29
HETATM   29  C23 UNL     1       2.635   7.133  10.016  1.00  0.00     0.120 C 
BRANCH  29  30
HETATM   30  C24 UNL     1       3.229   6.584  11.306  1.00  0.00     0.112 C 
BRANCH  30  31
HETATM   31  C25 UNL     1       4.740   6.714  11.348  1.00  0.00     0.217 C 
HETATM   32  O6  UNL     1       5.455   6.618  10.359  1.00  0.00    -0.274 OA
HETATM   33  N1  UNL     1       5.220   7.013  12.608  1.00  0.00    -0.361 N 
HETATM   34  H34 UNL     1       4.599   6.891  13.397  1.00  0.00     0.162 HD
BRANCH  33  35
HETATM   35  C26 UNL     1       6.645   7.055  12.871  1.00  0.00     0.122 C 
BRANCH  35  36
HETATM   36  C27 UNL     1       7.001   8.080  13.946  1.00  0.00     0.020 C 
BRANCH  36  37
HETATM   37  C28 UNL     1       8.141   7.659  14.880  1.00  0.00     0.002 C 
BRANCH  37  38
HETATM   38  C29 UNL     1       9.328   8.628  14.973  1.00  0.00     0.009 C 
BRANCH  38  39
HETATM   39  C30 UNL     1      10.442   8.373  13.959  1.00  0.00     0.103 C 
BRANCH  39  40
HETATM   40  C31 UNL     1      11.531   9.431  13.975  1.00  0.00     0.217 C 
HETATM   41  O7  UNL     1      12.466   9.461  13.183  1.00  0.00    -0.274 OA
HETATM   42  N2  UNL     1      11.377  10.344  14.998  1.00  0.00    -0.361 N 
HETATM   43  H45 UNL     1      10.488  10.383  15.481  1.00  0.00     0.162 HD
BRANCH  42  44
HETATM   44  C32 UNL     1      12.273  11.477  15.144  1.00  0.00     0.127 C 
BRANCH  44  45
HETATM   45  C33 UNL     1      13.632  11.107  15.749  1.00  0.00     0.058 C 
BRANCH  45  46
HETATM   46  C34 UNL     1      14.745  12.028  15.301  1.00  0.00    -0.054 A 
HETATM   47  C35 UNL     1      16.045  11.853  15.806  1.00  0.00     0.010 A 
HETATM   48  C36 UNL     1      17.089  12.678  15.382  1.00  0.00     0.040 A 
HETATM   49  C37 UNL     1      16.828  13.676  14.457  1.00  0.00     0.098 A 
HETATM   50  C38 UNL     1      15.544  13.865  13.954  1.00  0.00     0.099 A 
HETATM   51  C39 UNL     1      14.497  13.047  14.366  1.00  0.00     0.046 A 
BRANCH  49  52
HETATM   52  O8  UNL     1      17.850  14.482  14.042  1.00  0.00    -0.358 OA
HETATM   53  H52 UNL     1      17.430  15.102  13.413  1.00  0.00     0.217 HD
ENDBRANCH  49  52
BRANCH  50  54
HETATM   54  O9  UNL     1      15.360  14.873  13.049  1.00  0.00    -0.358 OA
HETATM   55  H53 UNL     1      14.412  14.911  12.824  1.00  0.00     0.217 HD
ENDBRANCH  50  54
ENDBRANCH  45  46
ENDBRANCH  44  45
ENDBRANCH  42  44
ENDBRANCH  39  40
ENDBRANCH  38  39
ENDBRANCH  37  38
ENDBRANCH  36  37
ENDBRANCH  35  36
ENDBRANCH  33  35
ENDBRANCH  30  31
ENDBRANCH  29  30
ENDBRANCH   1  29
TORSDOF 19
ENDMDL
