MODEL 1
REMARK minimizedAffinity -10.2107315
REMARK CNNscore 0.72233212
REMARK CNNaffinity 7.51488352
REMARK  9 active torsions:
REMARK  status: ('A' for Active; 'I' for Inactive)
REMARK    1  A    between atoms: C4_4  and  C5_5 
REMARK    2  A    between atoms: C5_5  and  C6_6 
REMARK    3  A    between atoms: C6_6  and  C7_7 
REMARK    4  A    between atoms: C13_14  and  O2_15 
REMARK    5  A    between atoms: C14_16  and  C15_17 
REMARK    6  A    between atoms: C15_17  and  C16_18 
REMARK    7  A    between atoms: C22_25  and  C23_26 
REMARK    8  A    between atoms: C25_28  and  O4_29 
REMARK    9  A    between atoms: C27_31  and  O5_32 
ROOT
HETATM    1  C7  UNL     1       1.675   7.631  11.957  1.00  0.00     0.082 A 
HETATM    2  C8  UNL     1       2.878   7.435  12.890  1.00  0.00     0.051 C 
HETATM    3  C9  UNL     1       1.116   6.258  11.617  1.00  0.00     0.012 A 
HETATM    4  C10 UNL     1      -0.143   5.888  11.866  1.00  0.00     0.016 A 
HETATM    5  C11 UNL     1      -0.996   6.869  12.497  1.00  0.00     0.035 A 
HETATM    6  C12 UNL     1      -0.522   8.123  12.862  1.00  0.00     0.117 A 
HETATM    7  O1  UNL     1       0.773   8.522  12.654  1.00  0.00    -0.333 OA
HETATM    8  C13 UNL     1      -1.369   9.048  13.483  1.00  0.00     0.107 A 
HETATM    9  C14 UNL     1      -2.724   8.774  13.771  1.00  0.00    -0.006 A 
HETATM   10  C20 UNL     1      -3.202   7.497  13.382  1.00  0.00     0.011 A 
HETATM   11  C21 UNL     1      -2.337   6.595  12.768  1.00  0.00     0.100 A 
HETATM   12  O3  UNL     1      -2.994   5.433  12.483  1.00  0.00    -0.308 OA
HETATM   13  C22 UNL     1      -4.288   5.572  12.900  1.00  0.00     0.087 A 
HETATM   14  C29 UNL     1      -4.456   6.825  13.456  1.00  0.00     0.053 A 
ENDROOT
BRANCH  13  15
HETATM   15  C23 UNL     1      -5.167   4.426  12.677  1.00  0.00     0.003 A 
HETATM   16  C24 UNL     1      -6.484   4.435  13.160  1.00  0.00     0.051 A 
HETATM   17  C25 UNL     1      -7.323   3.342  12.947  1.00  0.00     0.069 A 
HETATM   18  C26 UNL     1      -6.880   2.224  12.256  1.00  0.00     0.073 A 
HETATM   19  C27 UNL     1      -5.577   2.209  11.776  1.00  0.00     0.069 A 
HETATM   20  C28 UNL     1      -4.721   3.292  11.978  1.00  0.00     0.051 A 
BRANCH  17  21
HETATM   21  O4  UNL     1      -8.593   3.414  13.442  1.00  0.00    -0.361 OA
HETATM   22  H28 UNL     1      -9.059   2.592  13.215  1.00  0.00     0.217 HD
ENDBRANCH  17  21
BRANCH  19  23
HETATM   23  O5  UNL     1      -5.166   1.097  11.099  1.00  0.00    -0.361 OA
HETATM   24  H30 UNL     1      -4.242   1.225  10.824  1.00  0.00     0.217 HD
ENDBRANCH  19  23
ENDBRANCH  13  15
BRANCH   9  25
HETATM   25  C15 UNL     1      -3.606   9.812  14.427  1.00  0.00     0.070 C 
BRANCH  25  26
HETATM   26  C16 UNL     1      -3.547   9.733  15.929  1.00  0.00    -0.020 C 
HETATM   27  C17 UNL     1      -3.257  10.706  16.815  1.00  0.00    -0.091 C 
HETATM   28  C18 UNL     1      -2.922  12.130  16.474  1.00  0.00     0.042 C 
HETATM   29  C19 UNL     1      -3.247  10.410  18.293  1.00  0.00     0.042 C 
ENDBRANCH  25  26
ENDBRANCH   9  25
BRANCH   8  30
HETATM   30  O2  UNL     1      -0.855  10.277  13.823  1.00  0.00    -0.357 OA
HETATM   31  H17 UNL     1       0.080  10.254  13.542  1.00  0.00     0.217 HD
ENDBRANCH   8  30
BRANCH   1  32
HETATM   32  C6  UNL     1       2.087   8.323  10.634  1.00  0.00     0.046 C 
BRANCH  32  33
HETATM   33  C5  UNL     1       3.308   7.703   9.943  1.00  0.00     0.030 C 
BRANCH  33  34
HETATM   34  C4  UNL     1       3.016   7.417   8.495  1.00  0.00    -0.025 C 
HETATM   35  C2  UNL     1       1.860   7.619   7.833  1.00  0.00    -0.091 C 
HETATM   36  C1  UNL     1       0.618   8.228   8.425  1.00  0.00     0.042 C 
HETATM   37  C3  UNL     1       1.732   7.241   6.380  1.00  0.00     0.042 C 
ENDBRANCH  33  34
ENDBRANCH  32  33
ENDBRANCH   1  32
TORSDOF 9
ENDMDL
