MODEL 1
REMARK minimizedAffinity -9.98214245
REMARK CNNscore 0.428180367
REMARK CNNaffinity 7.63618279
REMARK  11 active torsions:
REMARK  status: ('A' for Active; 'I' for Inactive)
REMARK    1  A    between atoms: C3_3  and  O1_4 
REMARK    2  A    between atoms: N1_14  and  O2_16 
REMARK    3  A    between atoms: O2_16  and  C13_17 
REMARK    4  A    between atoms: C13_17  and  C14_18 
REMARK       I    between atoms: C14_18  and  N2_20 
REMARK    5  A    between atoms: N2_20  and  C15_21 
REMARK    6  A    between atoms: C15_21  and  C16_22 
REMARK    7  A    between atoms: C15_21  and  C17_25 
REMARK    8  A    between atoms: C16_22  and  O5_24 
REMARK    9  A    between atoms: C17_25  and  O6_26 
REMARK   10  A    between atoms: C17_25  and  C18_27 
REMARK   11  A    between atoms: C22_31  and  N3_32 
ROOT
HETATM    1  C1  UNL     1       2.010  51.450 -27.846  1.00  0.00     0.015 C 
HETATM    2  C2  UNL     1       1.245  52.067 -27.155  1.00  0.00    -0.078 C 
HETATM    3  C3  UNL     1       0.318  52.838 -26.314  1.00  0.00     0.128 C 
HETATM    4  C4  UNL     1       0.785  52.883 -24.860  1.00  0.00     0.052 C 
HETATM    5  C5  UNL     1      -0.454  53.285 -24.066  1.00  0.00     0.010 C 
HETATM    6  C6  UNL     1      -1.683  52.864 -24.902  1.00  0.00     0.002 C 
HETATM    7  C7  UNL     1      -2.647  51.895 -24.186  1.00  0.00    -0.004 C 
HETATM    8  C8  UNL     1      -3.324  52.530 -22.965  1.00  0.00     0.010 C 
HETATM    9  C9  UNL     1      -4.388  51.592 -22.405  1.00  0.00     0.035 C 
HETATM   10  C10 UNL     1      -3.856  50.208 -22.100  1.00  0.00    -0.069 C 
HETATM   11  C11 UNL     1      -4.216  49.609 -20.950  1.00  0.00     0.030 C 
HETATM   12  C12 UNL     1      -3.890  48.191 -20.662  1.00  0.00     0.032 C 
HETATM   13  N1  UNL     1      -4.451  47.644 -19.620  1.00  0.00    -0.271 N 
ATOM     14  H1  UNL     1      -5.053  48.142 -18.964  1.00  0.00     0.194 HD
HETATM   15  C24 UNL     1      -3.017  47.440 -21.644  1.00  0.00     0.060 C 
HETATM   16  C25 UNL     1      -2.173  48.381 -22.496  1.00  0.00     0.020 C 
HETATM   17  C26 UNL     1      -2.982  49.530 -23.167  1.00  0.00    -0.016 C 
HETATM   18  C27 UNL     1      -3.916  48.948 -24.252  1.00  0.00     0.020 C 
HETATM   19  C28 UNL     1      -1.960  50.570 -23.766  1.00  0.00     0.002 C 
HETATM   20  C29 UNL     1      -1.051  50.022 -24.891  1.00  0.00     0.007 C 
HETATM   21  C30 UNL     1      -1.255  50.710 -26.239  1.00  0.00     0.014 C 
HETATM   22  C31 UNL     1      -1.137  52.265 -26.241  1.00  0.00     0.003 C 
HETATM   23  C32 UNL     1      -1.991  52.766 -27.433  1.00  0.00     0.020 C 
ENDROOT
BRANCH   3  24
HETATM   24  O1  UNL     1       0.324  54.181 -26.809  1.00  0.00    -0.377 OA
HETATM   25  H2  UNL     1      -0.239  54.726 -26.236  1.00  0.00     0.211 HD
ENDBRANCH   3  24
BRANCH  13  26
HETATM   26  O2  UNL     1      -4.124  46.283 -19.514  1.00  0.00    -0.271 OA
BRANCH  26  27
HETATM   27  C13 UNL     1      -3.379  46.077 -18.318  1.00  0.00     0.303 C 
BRANCH  27  28
HETATM   28  C14 UNL     1      -3.255  47.373 -17.534  1.00  0.00     0.244 C 
HETATM   29  O3  UNL     1      -4.225  48.055 -17.207  1.00  0.00    -0.271 OA
HETATM   30  N2  UNL     1      -1.961  47.771 -17.293  1.00  0.00    -0.342 N 
HETATM   31  H16 UNL     1      -1.195  47.132 -17.498  1.00  0.00     0.163 HD
BRANCH  30  32
HETATM   32  C15 UNL     1      -1.651  49.042 -16.629  1.00  0.00     0.216 C 
BRANCH  32  33
HETATM   33  C16 UNL     1      -2.519  49.221 -15.384  1.00  0.00     0.166 C 
HETATM   34  O4  UNL     1      -2.418  48.594 -14.337  1.00  0.00    -0.648 OA
BRANCH  33  35
HETATM   35  O5  UNL     1      -3.453  50.191 -15.490  1.00  0.00    -0.775 OA
HETATM   36  H18 UNL     1      -3.963  50.132 -14.650  1.00  0.00     0.167 HD
ENDBRANCH  33  35
ENDBRANCH  32  33
BRANCH  32  37
HETATM   37  C17 UNL     1      -1.810  50.253 -17.593  1.00  0.00     0.184 C 
BRANCH  37  38
HETATM   38  O6  UNL     1      -2.981  51.014 -17.248  1.00  0.00    -0.388 OA
HETATM   39  H20 UNL     1      -2.791  51.480 -16.412  1.00  0.00     0.210 HD
ENDBRANCH  37  38
BRANCH  37  40
HETATM   40  C18 UNL     1      -0.573  51.140 -17.715  1.00  0.00    -0.025 A 
HETATM   41  C19 UNL     1       0.254  51.436 -16.615  1.00  0.00     0.010 A 
HETATM   42  C20 UNL     1       1.378  52.261 -16.752  1.00  0.00     0.003 A 
HETATM   43  C21 UNL     1       1.695  52.821 -17.986  1.00  0.00     0.036 A 
HETATM   44  C22 UNL     1       0.868  52.561 -19.083  1.00  0.00     0.103 A 
HETATM   45  C23 UNL     1      -0.262  51.736 -18.952  1.00  0.00     0.045 A 
BRANCH  44  46
HETATM   46  N3  UNL     1       1.182  53.166 -20.385  1.00  0.00    -0.116 N 
HETATM   47  O7  UNL     1       1.436  52.401 -21.330  1.00  0.00    -0.532 OA
HETATM   48  O8  UNL     1       1.176  54.407 -20.466  1.00  0.00    -0.532 OA
ENDBRANCH  44  46
ENDBRANCH  37  40
ENDBRANCH  32  37
ENDBRANCH  30  32
ENDBRANCH  27  28
ENDBRANCH  26  27
ENDBRANCH  13  26
TORSDOF 11
ENDMDL
