MODEL 1
REMARK minimizedAffinity -9.10235786
REMARK CNNscore 0.343734801
REMARK CNNaffinity 7.17463923
REMARK  9 active torsions:
REMARK  status: ('A' for Active; 'I' for Inactive)
REMARK    1  A    between atoms: C3_3  and  O1_4 
REMARK    2  A    between atoms: N1_14  and  O2_16 
REMARK    3  A    between atoms: O2_16  and  C13_17 
REMARK    4  A    between atoms: C13_17  and  C14_18 
REMARK       I    between atoms: C14_18  and  N2_20 
REMARK    5  A    between atoms: N2_20  and  C15_21 
REMARK    6  A    between atoms: C15_21  and  C16_22 
REMARK    7  A    between atoms: C15_21  and  C18_26 
REMARK    8  A    between atoms: C16_22  and  C17_23 
REMARK    9  A    between atoms: C17_23  and  O5_25 
ROOT
HETATM    1  C1  UNL     1      -9.151   9.052  15.820  1.00  0.00     0.015 C 
HETATM    2  C2  UNL     1      -8.573   8.035  15.552  1.00  0.00    -0.078 C 
HETATM    3  C3  UNL     1      -7.883   6.773  15.244  1.00  0.00     0.128 C 
HETATM    4  C4  UNL     1      -7.003   6.310  16.400  1.00  0.00     0.052 C 
HETATM    5  C5  UNL     1      -6.112   5.250  15.771  1.00  0.00     0.010 C 
HETATM    6  C6  UNL     1      -5.897   5.665  14.300  1.00  0.00     0.002 C 
HETATM    7  C7  UNL     1      -4.442   6.059  13.949  1.00  0.00    -0.004 C 
HETATM    8  C8  UNL     1      -3.468   4.883  14.128  1.00  0.00     0.010 C 
HETATM    9  C9  UNL     1      -2.056   5.268  13.706  1.00  0.00     0.035 C 
HETATM   10  C10 UNL     1      -1.570   6.502  14.431  1.00  0.00    -0.069 C 
HETATM   11  C11 UNL     1      -0.382   6.480  15.059  1.00  0.00     0.030 C 
HETATM   12  C12 UNL     1       0.200   7.696  15.682  1.00  0.00     0.032 C 
HETATM   13  N1  UNL     1       1.313   7.566  16.344  1.00  0.00    -0.271 N 
ATOM     14  H1  UNL     1       1.782   6.674  16.506  1.00  0.00     0.194 HD
HETATM   15  C25 UNL     1      -0.515   9.010  15.448  1.00  0.00     0.060 C 
HETATM   16  C26 UNL     1      -2.022   8.786  15.432  1.00  0.00     0.020 C 
HETATM   17  C27 UNL     1      -2.489   7.731  14.386  1.00  0.00    -0.016 C 
HETATM   18  C28 UNL     1      -2.399   8.347  12.970  1.00  0.00     0.020 C 
HETATM   19  C29 UNL     1      -3.961   7.295  14.751  1.00  0.00     0.002 C 
HETATM   20  C30 UNL     1      -4.995   8.443  14.711  1.00  0.00     0.007 C 
HETATM   21  C31 UNL     1      -6.182   8.173  13.792  1.00  0.00     0.014 C 
HETATM   22  C32 UNL     1      -6.920   6.819  14.012  1.00  0.00     0.003 C 
HETATM   23  C33 UNL     1      -7.686   6.523  12.700  1.00  0.00     0.020 C 
ENDROOT
BRANCH   3  24
HETATM   24  O1  UNL     1      -8.876   5.758  15.053  1.00  0.00    -0.377 OA
HETATM   25  H2  UNL     1      -9.531   5.864  15.764  1.00  0.00     0.211 HD
ENDBRANCH   3  24
BRANCH  13  26
HETATM   26  O2  UNL     1       1.789   8.800  16.810  1.00  0.00    -0.271 OA
BRANCH  26  27
HETATM   27  C13 UNL     1       2.500   9.447  15.759  1.00  0.00     0.303 C 
BRANCH  27  28
HETATM   28  C14 UNL     1       3.420   8.458  15.054  1.00  0.00     0.244 C 
HETATM   29  O3  UNL     1       4.094   7.634  15.666  1.00  0.00    -0.271 OA
HETATM   30  N2  UNL     1       3.372   8.523  13.678  1.00  0.00    -0.354 N 
HETATM   31  H16 UNL     1       2.770   9.233  13.262  1.00  0.00     0.162 HD
BRANCH  30  32
HETATM   32  C15 UNL     1       4.106   7.626  12.789  1.00  0.00     0.098 C 
BRANCH  32  33
HETATM   33  C16 UNL     1       5.403   8.311  12.327  1.00  0.00     0.135 C 
BRANCH  33  34
HETATM   34  C17 UNL     1       6.653   7.568  12.704  1.00  0.00     0.141 C 
HETATM   35  O4  UNL     1       7.417   7.014  11.930  1.00  0.00    -0.650 OA
BRANCH  34  36
HETATM   36  O5  UNL     1       6.870   7.513  14.034  1.00  0.00    -0.776 OA
HETATM   37  H20 UNL     1       7.693   6.983  14.111  1.00  0.00     0.167 HD
ENDBRANCH  34  36
ENDBRANCH  33  34
ENDBRANCH  32  33
BRANCH  32  38
HETATM   38  C18 UNL     1       3.203   7.121  11.629  1.00  0.00     0.014 C 
HETATM   39  C19 UNL     1       3.984   6.250  10.624  1.00  0.00     0.033 C 
HETATM   40  C20 UNL     1       3.113   5.204   9.935  1.00  0.00     0.169 C 
HETATM   41  O6  UNL     1       1.799   5.706   9.736  1.00  0.00    -0.381 OA
HETATM   42  C21 UNL     1       1.064   5.909  10.954  1.00  0.00     0.054 C 
HETATM   43  C22 UNL     1       0.051   7.021  10.648  1.00  0.00     0.045 C 
HETATM   44  C23 UNL     1       0.300   4.625  11.297  1.00  0.00     0.045 C 
HETATM   45  C24 UNL     1       1.982   6.327  12.127  1.00  0.00     0.044 C 
ENDBRANCH  32  38
ENDBRANCH  30  32
ENDBRANCH  27  28
ENDBRANCH  26  27
ENDBRANCH  13  26
TORSDOF 9
ENDMDL
