MODEL 1
REMARK minimizedAffinity -7.20352602
REMARK CNNscore 0.407079309
REMARK CNNaffinity 7.15784502
REMARK  4 active torsions:
REMARK  status: ('A' for Active; 'I' for Inactive)
REMARK    1  A    between atoms: C14_16  and  C15_17 
REMARK    2  A    between atoms: C15_17  and  C17_19 
REMARK    3  A    between atoms: C17_19  and  C18_20 
REMARK    4  A    between atoms: C18_20  and  C19_21 
ROOT
HETATM    1  C1  UNL     1       0.837   5.723  10.639  1.00  0.00     0.017 C 
HETATM    2  C2  UNL     1       0.121   5.354  11.719  1.00  0.00    -0.060 C 
HETATM    3  C3  UNL     1       0.633   4.253  12.627  1.00  0.00     0.212 C 
HETATM    4  O1  UNL     1      -0.323   3.201  12.736  1.00  0.00    -0.317 OA
HETATM    5  C4  UNL     1      -0.673   2.669  11.534  1.00  0.00     0.259 C 
HETATM    6  O2  UNL     1       0.107   2.338  10.653  1.00  0.00    -0.265 OA
HETATM    7  C5  UNL     1      -2.171   2.660  11.411  1.00  0.00     0.112 C 
HETATM    8  C6  UNL     1      -2.717   4.077  11.189  1.00  0.00     0.020 C 
HETATM    9  C7  UNL     1      -2.426   5.079  12.332  1.00  0.00    -0.024 A 
HETATM   10  C8  UNL     1      -2.703   4.602  13.742  1.00  0.00     0.022 A 
HETATM   11  C9  UNL     1      -3.598   5.688  13.184  1.00  0.00    -0.027 A 
HETATM   12  C10 UNL     1      -5.031   5.281  12.811  1.00  0.00     0.011 C 
HETATM   13  C11 UNL     1      -6.194   5.794  13.679  1.00  0.00     0.011 C 
HETATM   14  C12 UNL     1      -5.798   6.817  14.749  1.00  0.00    -0.032 C 
HETATM   15  C13 UNL     1      -5.259   6.030  15.974  1.00  0.00     0.016 C 
HETATM   16  C14 UNL     1      -6.925   7.803  15.201  1.00  0.00    -0.002 C 
HETATM   17  C23 UNL     1      -6.151   9.068  15.661  1.00  0.00     0.006 C 
HETATM   18  C24 UNL     1      -4.699   8.911  15.178  1.00  0.00     0.011 C 
HETATM   19  C25 UNL     1      -4.754   7.803  14.109  1.00  0.00    -0.032 C 
HETATM   20  C26 UNL     1      -5.224   8.480  12.782  1.00  0.00     0.016 C 
HETATM   21  C27 UNL     1      -3.410   7.064  13.882  1.00  0.00     0.004 C 
HETATM   22  C28 UNL     1      -2.336   7.920  13.200  1.00  0.00     0.007 C 
HETATM   23  C29 UNL     1      -1.037   7.137  13.044  1.00  0.00     0.010 C 
HETATM   24  C30 UNL     1      -1.226   6.012  12.016  1.00  0.00     0.025 C 
ENDROOT
BRANCH  16  25
HETATM   25  C15 UNL     1      -8.087   7.397  16.157  1.00  0.00    -0.014 C 
HETATM   26  C16 UNL     1      -8.597   5.953  16.056  1.00  0.00     0.010 C 
BRANCH  25  27
HETATM   27  C17 UNL     1      -9.260   8.402  16.076  1.00  0.00     0.008 C 
BRANCH  27  28
HETATM   28  C18 UNL     1      -9.042   9.583  15.116  1.00  0.00     0.028 C 
BRANCH  28  29
HETATM   29  C19 UNL     1      -9.963  10.738  15.402  1.00  0.00    -0.025 C 
HETATM   30  C20 UNL     1     -10.741  10.943  16.484  1.00  0.00    -0.091 C 
HETATM   31  C21 UNL     1     -11.600  12.178  16.583  1.00  0.00     0.042 C 
HETATM   32  C22 UNL     1     -10.851  10.026  17.670  1.00  0.00     0.042 C 
ENDBRANCH  28  29
ENDBRANCH  27  28
ENDBRANCH  25  27
ENDBRANCH  16  25
TORSDOF 4
ENDMDL
