MODEL 1
REMARK minimizedAffinity -9.27466869
REMARK  8 active torsions:
REMARK  status: ('A' for Active; 'I' for Inactive)
REMARK    1  A    between atoms: C12_14  and  C13_15 
REMARK    2  A    between atoms: C13_15  and  C15_17 
REMARK    3  A    between atoms: C15_17  and  C16_18 
REMARK    4  A    between atoms: C16_18  and  C17_20 
REMARK    5  A    between atoms: C26_29  and  C27_30 
REMARK    6  A    between atoms: C27_30  and  C28_31 
REMARK    7  A    between atoms: C28_31  and  C29_32 
REMARK    8  A    between atoms: C29_32  and  O5_34 
ROOT
HETATM    1  C1  UNL     1       0.726  53.816 -20.486  1.00  0.00     0.025 C 
HETATM    2  C2  UNL     1       0.057  52.789 -19.946  1.00  0.00     0.015 C 
HETATM    3  C3  UNL     1       0.306  52.359 -18.556  1.00  0.00     0.289 C 
HETATM    4  O1  UNL     1       1.297  52.590 -17.890  1.00  0.00    -0.260 OA
HETATM    5  O2  UNL     1      -0.792  51.675 -18.147  1.00  0.00    -0.311 OA
HETATM    6  C4  UNL     1      -1.821  51.735 -19.159  1.00  0.00     0.142 C 
HETATM    7  C5  UNL     1      -2.668  50.472 -19.034  1.00  0.00     0.039 C 
HETATM    8  C6  UNL     1      -2.962  49.673 -20.308  1.00  0.00     0.006 C 
HETATM    9  C7  UNL     1      -1.787  49.631 -21.304  1.00  0.00    -0.027 A 
HETATM   10  C8  UNL     1      -2.068  48.750 -22.532  1.00  0.00     0.011 C 
HETATM   11  C9  UNL     1      -3.437  49.003 -23.192  1.00  0.00     0.011 C 
HETATM   12  C10 UNL     1      -4.583  48.945 -22.163  1.00  0.00    -0.032 C 
HETATM   13  C11 UNL     1      -4.679  47.482 -21.622  1.00  0.00     0.016 C 
HETATM   14  C12 UNL     1      -6.006  49.381 -22.636  1.00  0.00    -0.002 C 
HETATM   15  C21 UNL     1      -6.690  49.774 -21.286  1.00  0.00     0.006 C 
HETATM   16  C22 UNL     1      -5.579  49.968 -20.232  1.00  0.00     0.011 C 
HETATM   17  C23 UNL     1      -4.283  50.035 -21.052  1.00  0.00    -0.032 C 
HETATM   18  C24 UNL     1      -4.192  51.495 -21.595  1.00  0.00     0.016 C 
HETATM   19  C25 UNL     1      -0.392  49.496 -20.735  1.00  0.00     0.022 A 
HETATM   20  C26 UNL     1      -0.792  50.818 -21.367  1.00  0.00    -0.021 A 
HETATM   21  C31 UNL     1      -1.113  52.030 -20.479  1.00  0.00     0.063 C 
ENDROOT
BRANCH  14  22
HETATM   22  C13 UNL     1      -6.890  48.410 -23.473  1.00  0.00    -0.007 C 
HETATM   23  C14 UNL     1      -7.280  47.153 -22.685  1.00  0.00     0.011 C 
BRANCH  22  24
HETATM   24  C15 UNL     1      -6.148  47.981 -24.762  1.00  0.00     0.087 C 
BRANCH  24  25
HETATM   25  C16 UNL     1      -7.076  47.469 -25.855  1.00  0.00     0.149 C 
HETATM   26  O3  UNL     1      -8.187  47.005 -25.614  1.00  0.00    -0.293 OA
BRANCH  25  27
HETATM   27  C17 UNL     1      -6.578  47.628 -27.257  1.00  0.00     0.052 C 
HETATM   28  C18 UNL     1      -5.339  48.017 -27.617  1.00  0.00    -0.084 C 
HETATM   29  C19 UNL     1      -4.244  48.414 -26.664  1.00  0.00     0.043 C 
HETATM   30  C20 UNL     1      -4.955  48.089 -29.071  1.00  0.00     0.043 C 
ENDBRANCH  25  27
ENDBRANCH  24  25
ENDBRANCH  22  24
ENDBRANCH  14  22
BRANCH  20  31
HETATM   31  C27 UNL     1      -0.238  51.227 -22.746  1.00  0.00     0.021 C 
BRANCH  31  32
HETATM   32  C28 UNL     1       0.226  52.672 -22.908  1.00  0.00     0.112 C 
BRANCH  32  33
HETATM   33  C29 UNL     1       0.603  53.037 -24.320  1.00  0.00     0.258 C 
HETATM   34  O4  UNL     1       0.861  54.178 -24.682  1.00  0.00    -0.265 OA
BRANCH  33  35
HETATM   35  O5  UNL     1       0.662  51.931 -25.111  1.00  0.00    -0.326 OA
HETATM   36  C30 UNL     1       1.345  52.145 -26.347  1.00  0.00     0.213 C 
ENDBRANCH  33  35
ENDBRANCH  32  33
ENDBRANCH  31  32
ENDBRANCH  20  31
TORSDOF 8
ENDMDL
