MODEL 1
REMARK minimizedAffinity -6.56493378
REMARK CNNscore 0.615463495
REMARK CNNaffinity 6.92808485
REMARK  18 active torsions:
REMARK  status: ('A' for Active; 'I' for Inactive)
REMARK    1  A    between atoms: C2_2  and  C3_3 
REMARK    2  A    between atoms: C2_2  and  C27_33 
REMARK    3  A    between atoms: C4_4  and  C5_5 
REMARK    4  A    between atoms: C6_6  and  C7_7 
REMARK    5  A    between atoms: C6_6  and  C10_12 
REMARK    6  A    between atoms: C7_7  and  O1_8 
REMARK    7  A    between atoms: O1_8  and  C8_9 
REMARK    8  A    between atoms: C8_9  and  C9_10 
REMARK    9  A    between atoms: C9_10  and  O2_11 
REMARK   10  A    between atoms: C14_16  and  O3_17 
REMARK   11  A    between atoms: C15_18  and  C16_19 
REMARK   12  A    between atoms: C16_19  and  C17_20 
REMARK   13  A    between atoms: C17_20  and  C18_21 
REMARK   14  A    between atoms: C18_21  and  O4_22 
REMARK   15  A    between atoms: C20_24  and  C22_26 
REMARK   16  A    between atoms: C25_30  and  O6_32 
REMARK   17  A    between atoms: C27_33  and  C28_34 
REMARK   18  A    between atoms: C28_34  and  C29_35 
ROOT
HETATM    1  C10 UNL     1       0.984  52.827 -11.788  1.00  0.00     0.046 C 
HETATM    2  C11 UNL     1       2.402  52.247 -11.878  1.00  0.00     0.013 C 
HETATM    3  C12 UNL     1       3.165  53.086 -10.861  1.00  0.00     0.017 C 
HETATM    4  C13 UNL     1       2.238  53.154  -9.608  1.00  0.00     0.024 C 
HETATM    5  C14 UNL     1       0.846  53.338 -10.314  1.00  0.00     0.138 C 
HETATM    6  C15 UNL     1       2.577  54.393  -8.667  1.00  0.00     0.029 C 
HETATM    7  C19 UNL     1       1.639  54.347  -7.442  1.00  0.00    -0.066 C 
HETATM    8  C20 UNL     1       0.566  55.117  -7.134  1.00  0.00    -0.021 C 
HETATM    9  C21 UNL     1      -0.319  54.939  -5.931  1.00  0.00     0.052 C 
HETATM   10  C23 UNL     1       1.990  53.154  -6.577  1.00  0.00     0.038 C 
HETATM   11  C24 UNL     1       1.634  51.898  -7.360  1.00  0.00     0.042 C 
HETATM   12  C25 UNL     1       2.348  51.806  -8.734  1.00  0.00     0.065 C 
HETATM   13  C26 UNL     1       3.812  51.379  -8.469  1.00  0.00     0.047 C 
ENDROOT
BRANCH   1  14
HETATM   14  C6  UNL     1      -0.189  52.043 -12.368  1.00  0.00    -0.050 C 
HETATM   15  C5  UNL     1      -0.168  51.475 -13.595  1.00  0.00     0.005 C 
BRANCH  15  16
HETATM   16  C4  UNL     1       0.952  51.454 -14.517  1.00  0.00     0.001 C 
HETATM   17  C3  UNL     1       1.158  52.403 -15.446  1.00  0.00     0.006 C 
BRANCH  17  18
HETATM   18  C2  UNL     1       2.228  52.420 -16.437  1.00  0.00    -0.067 C 
HETATM   19  C1  UNL     1       3.496  52.600 -16.035  1.00  0.00     0.019 C 
BRANCH  18  20
HETATM   20  C27 UNL     1       1.919  52.295 -17.921  1.00  0.00     0.041 C 
BRANCH  20  21
HETATM   21  C28 UNL     1       0.507  52.765 -18.311  1.00  0.00     0.032 C 
BRANCH  21  22
HETATM   22  C29 UNL     1       0.109  52.299 -19.685  1.00  0.00    -0.024 C 
HETATM   23  C30 UNL     1       0.419  52.859 -20.869  1.00  0.00    -0.091 C 
HETATM   24  C31 UNL     1       1.224  54.116 -21.049  1.00  0.00     0.042 C 
HETATM   25  C32 UNL     1      -0.049  52.231 -22.158  1.00  0.00     0.042 C 
ENDBRANCH  21  22
ENDBRANCH  20  21
ENDBRANCH  18  20
ENDBRANCH  17  18
ENDBRANCH  15  16
BRANCH  14  26
HETATM   26  C7  UNL     1      -1.441  51.930 -11.524  1.00  0.00     0.202 C 
BRANCH  26  27
HETATM   27  O1  UNL     1      -2.490  51.351 -12.294  1.00  0.00    -0.385 OA
BRANCH  27  28
HETATM   28  C8  UNL     1      -3.807  51.783 -11.952  1.00  0.00     0.194 C 
BRANCH  28  29
HETATM   29  C9  UNL     1      -3.944  53.307 -11.940  1.00  0.00     0.190 C 
BRANCH  29  30
HETATM   30  O2  UNL     1      -4.266  53.786 -13.243  1.00  0.00    -0.399 OA
HETATM   31  H12 UNL     1      -3.946  54.702 -13.305  1.00  0.00     0.209 HD
ENDBRANCH  29  30
ENDBRANCH  28  29
ENDBRANCH  27  28
ENDBRANCH  26  27
ENDBRANCH  14  26
ENDBRANCH   1  14
BRANCH   5  32
HETATM   32  O3  UNL     1      -0.245  52.803  -9.580  1.00  0.00    -0.394 OA
HETATM   33  H19 UNL     1      -1.027  52.817 -10.159  1.00  0.00     0.210 HD
ENDBRANCH   5  32
BRANCH   6  34
HETATM   34  C16 UNL     1       2.749  55.771  -9.365  1.00  0.00     0.012 C 
BRANCH  34  35
HETATM   35  C17 UNL     1       3.863  56.633  -8.742  1.00  0.00     0.027 C 
BRANCH  35  36
HETATM   36  C18 UNL     1       5.152  55.848  -8.525  1.00  0.00     0.164 C 
BRANCH  36  37
HETATM   37  O4  UNL     1       5.650  55.337  -9.756  1.00  0.00    -0.401 OA
HETATM   38  H27 UNL     1       6.046  56.082 -10.239  1.00  0.00     0.209 HD
ENDBRANCH  36  37
ENDBRANCH  35  36
ENDBRANCH  34  35
ENDBRANCH   6  34
BRANCH  12  39
HETATM   39  O6  UNL     1       1.765  50.699  -9.435  1.00  0.00    -0.389 OA
HETATM   40  H39 UNL     1       1.715  49.943  -8.826  1.00  0.00     0.210 HD
ENDBRANCH  12  39
BRANCH   8  41
HETATM   41  C22 UNL     1       0.032  56.148  -8.055  1.00  0.00     0.265 C 
HETATM   42  O5  UNL     1      -0.545  57.155  -7.667  1.00  0.00    -0.302 OA
ENDBRANCH   8  41
TORSDOF 18
ENDMDL
