MODEL 1
REMARK minimizedAffinity -7.53612518
REMARK CNNscore 0.331487834
REMARK CNNaffinity 6.46150446
REMARK  8 active torsions:
REMARK  status: ('A' for Active; 'I' for Inactive)
REMARK    1  A    between atoms: C12_14  and  C13_15 
REMARK    2  A    between atoms: C13_15  and  C15_17 
REMARK    3  A    between atoms: C15_17  and  C16_18 
REMARK    4  A    between atoms: C16_18  and  C17_20 
REMARK    5  A    between atoms: C26_29  and  C27_30 
REMARK    6  A    between atoms: C27_30  and  C28_31 
REMARK    7  A    between atoms: C28_31  and  C29_32 
REMARK    8  A    between atoms: C29_32  and  O5_34 
ROOT
HETATM    1  C1  UNL     1      -2.620   3.539  10.463  1.00  0.00     0.025 C 
HETATM    2  C2  UNL     1      -3.261   3.940  11.567  1.00  0.00     0.015 C 
HETATM    3  C3  UNL     1      -4.726   3.789  11.703  1.00  0.00     0.289 C 
HETATM    4  O1  UNL     1      -5.469   3.204  10.937  1.00  0.00    -0.260 OA
HETATM    5  O2  UNL     1      -5.103   4.408  12.852  1.00  0.00    -0.311 OA
HETATM    6  C4  UNL     1      -4.007   5.162  13.406  1.00  0.00     0.142 C 
HETATM    7  C5  UNL     1      -4.259   6.636  13.123  1.00  0.00     0.039 C 
HETATM    8  C6  UNL     1      -3.101   7.589  13.462  1.00  0.00     0.006 C 
HETATM    9  C7  UNL     1      -1.717   7.051  13.021  1.00  0.00    -0.027 A 
HETATM   10  C8  UNL     1      -0.522   7.937  13.431  1.00  0.00     0.011 C 
HETATM   11  C9  UNL     1      -0.590   8.540  14.843  1.00  0.00     0.011 C 
HETATM   12  C10 UNL     1      -1.948   9.212  15.097  1.00  0.00    -0.032 C 
HETATM   13  C11 UNL     1      -2.102  10.396  14.100  1.00  0.00     0.016 C 
HETATM   14  C12 UNL     1      -2.229   9.725  16.545  1.00  0.00    -0.002 C 
HETATM   15  C21 UNL     1      -3.781   9.659  16.653  1.00  0.00     0.006 C 
HETATM   16  C22 UNL     1      -4.288   8.832  15.454  1.00  0.00     0.011 C 
HETATM   17  C23 UNL     1      -3.048   8.082  14.943  1.00  0.00    -0.032 C 
HETATM   18  C24 UNL     1      -2.836   6.860  15.894  1.00  0.00     0.016 C 
HETATM   19  C25 UNL     1      -1.605   6.576  11.592  1.00  0.00     0.022 A 
HETATM   20  C26 UNL     1      -1.543   5.533  12.697  1.00  0.00    -0.021 A 
HETATM   21  C30 UNL     1      -2.735   4.574  12.813  1.00  0.00     0.063 C 
ENDROOT
BRANCH  14  22
HETATM   22  C13 UNL     1      -1.614  11.032  17.132  1.00  0.00    -0.007 C 
HETATM   23  C14 UNL     1      -0.096  11.057  17.365  1.00  0.00     0.011 C 
BRANCH  22  24
HETATM   24  C15 UNL     1      -2.354  11.482  18.407  1.00  0.00     0.087 C 
BRANCH  24  25
HETATM   25  C16 UNL     1      -3.353  12.605  18.166  1.00  0.00     0.149 C 
HETATM   26  O3  UNL     1      -3.267  13.381  17.219  1.00  0.00    -0.293 OA
BRANCH  25  27
HETATM   27  C17 UNL     1      -4.499  12.667  19.124  1.00  0.00     0.052 C 
HETATM   28  C18 UNL     1      -4.690  13.614  20.062  1.00  0.00    -0.084 C 
HETATM   29  C19 UNL     1      -5.918  13.587  20.933  1.00  0.00     0.043 C 
HETATM   30  C20 UNL     1      -3.751  14.754  20.352  1.00  0.00     0.043 C 
ENDBRANCH  25  27
ENDBRANCH  24  25
ENDBRANCH  22  24
ENDBRANCH  14  22
BRANCH  20  31
HETATM   31  C27 UNL     1      -0.208   4.864  13.069  1.00  0.00     0.021 C 
BRANCH  31  32
HETATM   32  C28 UNL     1       0.573   4.261  11.903  1.00  0.00     0.111 C 
BRANCH  32  33
HETATM   33  C29 UNL     1       1.501   5.274  11.289  1.00  0.00     0.139 C 
HETATM   34  O4  UNL     1       1.750   5.430  10.106  1.00  0.00    -0.650 OA
BRANCH  33  35
HETATM   35  O5  UNL     1       2.102   6.036  12.224  1.00  0.00    -0.776 OA
HETATM   36  H41 UNL     1       2.680   6.639  11.711  1.00  0.00     0.167 HD
ENDBRANCH  33  35
ENDBRANCH  32  33
ENDBRANCH  31  32
ENDBRANCH  20  31
TORSDOF 8
ENDMDL
