MODEL 1
REMARK minimizedAffinity -5.28374624
REMARK CNNscore 0.358813763
REMARK CNNaffinity 6.03327417
REMARK  6 active torsions:
REMARK  status: ('A' for Active; 'I' for Inactive)
REMARK    1  A    between atoms: C9_10  and  C10_11 
REMARK    2  A    between atoms: C11_13  and  O3_14 
REMARK    3  A    between atoms: C12_15  and  C13_16 
REMARK    4  A    between atoms: C14_18  and  O5_19 
REMARK    5  A    between atoms: C16_21  and  C17_22 
REMARK    6  A    between atoms: C17_22  and  C18_23 
ROOT
HETATM    1  C1  UNL     1     -20.634  -3.301  28.744  1.00  0.00     0.043 C 
HETATM    2  C2  UNL     1     -19.902  -3.909  27.562  1.00  0.00    -0.087 C 
HETATM    3  C3  UNL     1     -18.777  -3.302  27.135  1.00  0.00    -0.024 C 
HETATM    4  C4  UNL     1     -17.870  -3.605  25.986  1.00  0.00     0.030 C 
HETATM    5  C5  UNL     1     -16.436  -3.958  26.394  1.00  0.00     0.042 C 
HETATM    6  C6  UNL     1     -16.173  -5.262  27.205  1.00  0.00     0.069 C 
HETATM    7  C7  UNL     1     -16.779  -5.160  28.623  1.00  0.00     0.047 C 
HETATM    8  O1  UNL     1     -14.719  -5.186  27.432  1.00  0.00    -0.338 OA
HETATM    9  C8  UNL     1     -14.155  -6.367  27.844  1.00  0.00     0.095 A 
HETATM   10  C9  UNL     1     -13.291  -6.377  28.942  1.00  0.00     0.070 A 
HETATM   11  C11 UNL     1     -12.771  -7.594  29.397  1.00  0.00     0.097 A 
HETATM   12  C12 UNL     1     -13.120  -8.781  28.744  1.00  0.00     0.069 A 
HETATM   13  C14 UNL     1     -13.967  -8.749  27.615  1.00  0.00     0.091 A 
HETATM   14  C15 UNL     1     -14.457  -7.533  27.125  1.00  0.00     0.015 A 
HETATM   15  C16 UNL     1     -15.302  -7.281  25.890  1.00  0.00     0.032 C 
HETATM   16  C21 UNL     1     -16.605  -6.548  26.352  1.00  0.00     0.034 C 
HETATM   17  C22 UNL     1     -17.564  -7.448  27.118  1.00  0.00     0.006 A 
HETATM   18  C23 UNL     1     -19.074  -7.191  27.183  1.00  0.00    -0.001 A 
HETATM   19  C24 UNL     1     -19.889  -6.277  26.299  1.00  0.00     0.010 C 
HETATM   20  C25 UNL     1     -20.614  -5.133  27.017  1.00  0.00     0.034 C 
HETATM   21  C26 UNL     1     -18.543  -8.479  26.554  1.00  0.00    -0.039 A 
HETATM   22  C27 UNL     1     -18.718  -9.754  27.349  1.00  0.00     0.015 C 
HETATM   23  C28 UNL     1     -18.751  -8.696  25.073  1.00  0.00     0.015 C 
ENDROOT
BRANCH  15  24
HETATM   24  C17 UNL     1     -15.529  -8.416  24.876  1.00  0.00     0.014 C 
BRANCH  24  25
HETATM   25  C18 UNL     1     -14.579  -8.410  23.652  1.00  0.00    -0.022 C 
HETATM   26  C19 UNL     1     -15.312  -8.087  22.347  1.00  0.00     0.009 C 
HETATM   27  C20 UNL     1     -13.900  -9.778  23.527  1.00  0.00     0.009 C 
ENDBRANCH  24  25
ENDBRANCH  15  24
BRANCH  13  28
HETATM   28  O5  UNL     1     -14.348  -9.908  26.995  1.00  0.00    -0.359 OA
HETATM   29  H15 UNL     1     -13.902 -10.671  27.432  1.00  0.00     0.217 HD
ENDBRANCH  13  28
BRANCH  10  30
HETATM   30  C10 UNL     1     -12.964  -5.110  29.623  1.00  0.00     0.275 C 
HETATM   31  O2  UNL     1     -13.644  -4.106  29.418  1.00  0.00    -0.301 OA
ENDBRANCH  10  30
BRANCH  12  32
HETATM   32  C13 UNL     1     -12.594 -10.064  29.257  1.00  0.00     0.275 C 
HETATM   33  O4  UNL     1     -12.686 -10.346  30.450  1.00  0.00    -0.301 OA
ENDBRANCH  12  32
BRANCH  11  34
HETATM   34  O3  UNL     1     -11.934  -7.660  30.484  1.00  0.00    -0.359 OA
HETATM   35  H13 UNL     1     -11.799  -6.748  30.835  1.00  0.00     0.217 HD
ENDBRANCH  11  34
TORSDOF 6
ENDMDL
