MODEL 1
REMARK minimizedAffinity -7.09292984
REMARK CNNscore 0.540150404
REMARK CNNaffinity 6.87392044
REMARK  13 active torsions:
REMARK  status: ('A' for Active; 'I' for Inactive)
REMARK    1  A    between atoms: C2_2  and  C3_3 
REMARK    2  A    between atoms: C3_3  and  C5_5 
REMARK    3  A    between atoms: C5_5  and  N1_6 
REMARK    4  A    between atoms: C5_5  and  C31_39 
REMARK       I    between atoms: N1_6  and  C6_7 
REMARK    5  A    between atoms: C6_7  and  C7_9 
REMARK    6  A    between atoms: C7_9  and  C8_10 
REMARK    7  A    between atoms: C8_10  and  C9_11 
REMARK    8  A    between atoms: C9_11  and  O3_13 
REMARK    9  A    between atoms: O3_13  and  C10_14 
REMARK   10  A    between atoms: C10_14  and  C11_15 
REMARK   11  A    between atoms: C11_15  and  C12_17 
REMARK   12  A    between atoms: C12_17  and  O5_18 
REMARK   13  A    between atoms: C31_39  and  O9_41 
ROOT
HETATM    1  C12 UNL     1     -11.770   9.864  16.693  1.00  0.00     0.128 C 
HETATM    2  C13 UNL     1     -12.548  10.335  15.445  1.00  0.00     0.047 C 
HETATM    3  C14 UNL     1     -12.029   9.489  14.259  1.00  0.00     0.009 C 
HETATM    4  C15 UNL     1     -11.053   8.496  14.889  1.00  0.00     0.002 C 
HETATM    5  C16 UNL     1      -9.990   7.838  13.995  1.00  0.00     0.003 C 
HETATM    6  C17 UNL     1     -10.636   7.104  12.812  1.00  0.00     0.010 C 
HETATM    7  C18 UNL     1      -9.594   6.379  11.970  1.00  0.00     0.035 C 
HETATM    8  C19 UNL     1      -8.754   5.442  12.804  1.00  0.00    -0.067 C 
HETATM    9  C20 UNL     1      -8.636   4.152  12.447  1.00  0.00     0.053 C 
HETATM   10  C21 UNL     1      -7.749   3.222  13.184  1.00  0.00     0.149 C 
HETATM   11  O6  UNL     1      -7.791   2.022  12.940  1.00  0.00    -0.293 OA
HETATM   12  C22 UNL     1      -6.791   3.820  14.177  1.00  0.00     0.084 C 
HETATM   13  C23 UNL     1      -7.490   4.930  14.949  1.00  0.00     0.022 C 
HETATM   14  C24 UNL     1      -8.072   6.056  14.041  1.00  0.00    -0.009 C 
HETATM   15  C25 UNL     1      -6.917   6.956  13.540  1.00  0.00     0.021 C 
HETATM   16  C26 UNL     1      -9.158   6.842  14.857  1.00  0.00     0.072 C 
HETATM   17  C27 UNL     1      -8.646   7.567  16.117  1.00  0.00     0.133 C 
HETATM   18  O7  UNL     1      -7.467   7.599  16.458  1.00  0.00    -0.297 OA
HETATM   19  C28 UNL     1      -9.708   8.258  16.965  1.00  0.00     0.091 C 
HETATM   20  C29 UNL     1     -10.461   9.273  16.093  1.00  0.00     0.005 C 
HETATM   21  C30 UNL     1      -9.483  10.401  15.673  1.00  0.00     0.019 C 
ENDROOT
BRANCH   1  22
HETATM   22  C11 UNL     1     -11.549  10.882  17.827  1.00  0.00     0.185 C 
HETATM   23  O4  UNL     1     -11.503  12.086  17.540  1.00  0.00    -0.292 OA
BRANCH  22  24
HETATM   24  C10 UNL     1     -11.397  10.407  19.263  1.00  0.00     0.260 C 
BRANCH  24  25
HETATM   25  O3  UNL     1     -11.432  11.467  20.214  1.00  0.00    -0.314 OA
BRANCH  25  26
HETATM   26  C9  UNL     1     -10.883  11.187  21.427  1.00  0.00     0.259 C 
HETATM   27  O2  UNL     1      -9.986  11.825  21.951  1.00  0.00    -0.265 OA
BRANCH  26  28
HETATM   28  C8  UNL     1     -11.544   9.969  22.017  1.00  0.00     0.120 C 
BRANCH  28  29
HETATM   29  C7  UNL     1     -10.728   9.398  23.174  1.00  0.00     0.112 C 
BRANCH  29  30
HETATM   30  C6  UNL     1     -11.573   9.250  24.420  1.00  0.00     0.218 C 
HETATM   31  N1  UNL     1     -12.832   8.745  24.166  1.00  0.00    -0.346 N 
HETATM   32  H11 UNL     1     -12.921   8.190  23.321  1.00  0.00     0.163 HD
HETATM   33  O1  UNL     1     -11.180   9.569  25.534  1.00  0.00    -0.274 OA
BRANCH  31  34
HETATM   34  C5  UNL     1     -13.739   8.363  25.262  1.00  0.00     0.186 C 
BRANCH  34  35
HETATM   35  C3  UNL     1     -14.341   6.931  25.150  1.00  0.00     0.014 C 
HETATM   36  C4  UNL     1     -14.377   6.246  26.527  1.00  0.00     0.012 C 
BRANCH  35  37
HETATM   37  C2  UNL     1     -13.542   6.053  24.151  1.00  0.00     0.002 C 
HETATM   38  C1  UNL     1     -13.731   4.552  24.352  1.00  0.00     0.005 C 
ENDBRANCH  35  37
ENDBRANCH  34  35
BRANCH  34  39
HETATM   39  C31 UNL     1     -14.789   9.481  25.479  1.00  0.00     0.163 C 
HETATM   40  O8  UNL     1     -14.833  10.287  26.396  1.00  0.00    -0.648 OA
BRANCH  39  41
HETATM   41  O9  UNL     1     -15.667   9.617  24.454  1.00  0.00    -0.775 OA
HETATM   42  H43 UNL     1     -16.240  10.358  24.750  1.00  0.00     0.167 HD
ENDBRANCH  39  41
ENDBRANCH  34  39
ENDBRANCH  31  34
ENDBRANCH  29  30
ENDBRANCH  28  29
ENDBRANCH  26  28
ENDBRANCH  25  26
ENDBRANCH  24  25
ENDBRANCH  22  24
ENDBRANCH   1  22
BRANCH   1  43
HETATM   43  O5  UNL     1     -12.534   8.786  17.274  1.00  0.00    -0.381 OA
HETATM   44  H18 UNL     1     -12.395   8.818  18.244  1.00  0.00     0.211 HD
ENDBRANCH   1  43
TORSDOF 13
ENDMDL
