MODEL 1
REMARK minimizedAffinity -10.0900154
REMARK CNNscore 0.573511243
REMARK CNNaffinity 7.54102278
REMARK  9 active torsions:
REMARK  status: ('A' for Active; 'I' for Inactive)
REMARK    1  A    between atoms: C2_2  and  O1_3 
REMARK    2  A    between atoms: O1_3  and  C3_4 
REMARK    3  A    between atoms: C14_15  and  O2_16 
REMARK    4  A    between atoms: O2_16  and  C15_17 
REMARK    5  A    between atoms: C21_24  and  O4_25 
REMARK    6  A    between atoms: O4_25  and  C22_26 
REMARK    7  A    between atoms: C24_29  and  O6_30 
REMARK    8  A    between atoms: C25_31  and  O7_32 
REMARK    9  A    between atoms: C26_33  and  O8_34 
ROOT
HETATM    1  C3  UNL     1      -7.662   4.312  13.002  1.00  0.00     0.260 C 
HETATM    2  C4  UNL     1      -7.589   4.592  14.528  1.00  0.00     0.065 C 
HETATM    3  C5  UNL     1      -6.795   5.861  14.938  1.00  0.00    -0.007 C 
HETATM    4  C6  UNL     1      -6.299   5.684  16.369  1.00  0.00     0.010 C 
HETATM    5  C7  UNL     1      -5.745   6.151  13.853  1.00  0.00     0.027 C 
HETATM    6  C8  UNL     1      -5.352   4.844  13.148  1.00  0.00     0.130 C 
HETATM    7  C9  UNL     1      -4.060   5.189  12.405  1.00  0.00     0.042 C 
HETATM    8  C10 UNL     1      -3.301   6.008  13.474  1.00  0.00    -0.029 C 
HETATM    9  C11 UNL     1      -2.823   5.005  14.581  1.00  0.00     0.016 C 
HETATM   10  C12 UNL     1      -2.086   6.821  12.964  1.00  0.00     0.006 C 
HETATM   11  C13 UNL     1      -0.922   5.924  12.525  1.00  0.00     0.039 C 
HETATM   12  C14 UNL     1       0.292   6.738  12.067  1.00  0.00     0.138 C 
HETATM   13  C17 UNL     1       0.917   7.447  13.300  1.00  0.00     0.035 C 
HETATM   14  C18 UNL     1       2.233   8.282  13.042  1.00  0.00    -0.015 C 
HETATM   15  C19 UNL     1       2.008   9.400  12.001  1.00  0.00     0.018 C 
HETATM   16  C20 UNL     1       3.370   7.382  12.492  1.00  0.00     0.018 C 
HETATM   17  C21 UNL     1       2.742   8.871  14.408  1.00  0.00     0.133 C 
HETATM   18  C27 UNL     1       1.659   9.666  15.138  1.00  0.00     0.034 C 
HETATM   19  C28 UNL     1       0.424   8.812  15.382  1.00  0.00     0.013 C 
HETATM   20  C29 UNL     1      -0.129   8.279  14.076  1.00  0.00    -0.025 A 
HETATM   21  C30 UNL     1      -1.088   9.171  13.339  1.00  0.00     0.021 A 
HETATM   22  C31 UNL     1      -1.639   7.904  13.983  1.00  0.00    -0.027 A 
HETATM   23  C32 UNL     1      -2.511   8.132  15.244  1.00  0.00     0.011 C 
HETATM   24  C33 UNL     1      -3.948   7.569  15.296  1.00  0.00     0.011 C 
HETATM   25  C34 UNL     1      -4.425   6.993  13.972  1.00  0.00    -0.030 C 
HETATM   26  C35 UNL     1      -4.662   8.220  13.022  1.00  0.00     0.016 C 
HETATM   27  O9  UNL     1      -6.413   4.448  12.302  1.00  0.00    -0.356 OA
ENDROOT
BRANCH  17  28
HETATM   28  O4  UNL     1       3.883   9.701  14.150  1.00  0.00    -0.353 OA
BRANCH  28  29
HETATM   29  C22 UNL     1       5.081   9.309  14.833  1.00  0.00     0.291 C 
HETATM   30  O5  UNL     1       6.219  10.049  14.392  1.00  0.00    -0.356 OA
HETATM   31  C23 UNL     1       6.746   9.581  13.148  1.00  0.00     0.205 C 
HETATM   32  C24 UNL     1       7.304   8.157  13.275  1.00  0.00     0.173 C 
HETATM   33  C25 UNL     1       6.716   7.439  14.491  1.00  0.00     0.182 C 
HETATM   34  C26 UNL     1       5.241   7.783  14.621  1.00  0.00     0.204 C 
BRANCH  32  35
HETATM   35  O6  UNL     1       8.733   8.171  13.394  1.00  0.00    -0.391 OA
HETATM   36  H39 UNL     1       8.986   7.237  13.542  1.00  0.00     0.210 HD
ENDBRANCH  32  35
BRANCH  33  37
HETATM   37  O7  UNL     1       6.893   6.021  14.337  1.00  0.00    -0.390 OA
HETATM   38  H41 UNL     1       6.355   5.623  15.051  1.00  0.00     0.210 HD
ENDBRANCH  33  37
BRANCH  34  39
HETATM   39  O8  UNL     1       4.675   7.032  15.711  1.00  0.00    -0.388 OA
HETATM   40  H43 UNL     1       3.729   7.274  15.744  1.00  0.00     0.210 HD
ENDBRANCH  34  39
ENDBRANCH  28  29
ENDBRANCH  17  28
BRANCH  12  41
HETATM   41  O2  UNL     1       1.224   5.795  11.494  1.00  0.00    -0.316 OA
BRANCH  41  42
HETATM   42  C15 UNL     1       1.472   5.945  10.163  1.00  0.00     0.255 C 
HETATM   43  C16 UNL     1       0.774   7.163   9.639  1.00  0.00     0.126 C 
HETATM   44  O3  UNL     1       2.171   5.209   9.480  1.00  0.00    -0.266 OA
ENDBRANCH  41  42
ENDBRANCH  12  41
BRANCH   1  45
HETATM   45  O1  UNL     1      -8.154   2.971  12.869  1.00  0.00    -0.362 OA
BRANCH  45  46
HETATM   46  C2  UNL     1      -7.159   1.963  13.012  1.00  0.00     0.166 C 
HETATM   47  C1  UNL     1      -6.528   1.562  11.694  1.00  0.00     0.033 C 
ENDBRANCH  45  46
ENDBRANCH   1  45
TORSDOF 9
ENDMDL
