MODEL 1
REMARK minimizedAffinity -8.48585987
REMARK CNNscore 0.541522741
REMARK CNNaffinity 7.48504972
REMARK  11 active torsions:
REMARK  status: ('A' for Active; 'I' for Inactive)
REMARK    1  A    between atoms: C3_3  and  O1_4 
REMARK    2  A    between atoms: N1_14  and  O2_16 
REMARK    3  A    between atoms: O2_16  and  C13_17 
REMARK    4  A    between atoms: C13_17  and  C14_18 
REMARK       I    between atoms: C14_18  and  N2_20 
REMARK    5  A    between atoms: N2_20  and  C15_21 
REMARK    6  A    between atoms: C15_21  and  C16_22 
REMARK    7  A    between atoms: C15_21  and  C19_27 
REMARK    8  A    between atoms: C16_22  and  O5_24 
REMARK    9  A    between atoms: O5_24  and  C17_25 
REMARK   10  A    between atoms: C19_27  and  O6_28 
REMARK   11  A    between atoms: C19_27  and  C20_29 
ROOT
HETATM    1  C1  UNL     1       1.753  43.390 -13.602  1.00  0.00     0.015 C 
HETATM    2  C2  UNL     1       2.061  44.529 -13.368  1.00  0.00    -0.078 C 
HETATM    3  C3  UNL     1       2.462  45.929 -13.088  1.00  0.00     0.128 C 
HETATM    4  C4  UNL     1       2.796  46.629 -14.406  1.00  0.00     0.052 C 
HETATM    5  C5  UNL     1       1.460  47.149 -14.935  1.00  0.00     0.010 C 
HETATM    6  C6  UNL     1       0.478  47.174 -13.742  1.00  0.00     0.002 C 
HETATM    7  C7  UNL     1      -0.323  48.485 -13.593  1.00  0.00    -0.004 C 
HETATM    8  C8  UNL     1      -1.312  48.677 -14.753  1.00  0.00     0.010 C 
HETATM    9  C9  UNL     1      -1.751  50.123 -14.904  1.00  0.00     0.035 C 
HETATM   10  C10 UNL     1      -0.518  50.898 -15.268  1.00  0.00    -0.069 C 
HETATM   11  C11 UNL     1      -0.376  51.380 -16.517  1.00  0.00     0.030 C 
HETATM   12  C12 UNL     1       0.887  52.033 -16.967  1.00  0.00     0.032 C 
HETATM   13  N1  UNL     1       1.157  52.422 -18.175  1.00  0.00    -0.271 N 
ATOM     14  H1  UNL     1       2.054  52.815 -18.458  1.00  0.00     0.194 HD
HETATM   15  C26 UNL     1       1.959  52.259 -15.926  1.00  0.00     0.060 C 
HETATM   16  C27 UNL     1       1.941  51.161 -14.870  1.00  0.00     0.020 C 
HETATM   17  C28 UNL     1       0.556  50.980 -14.188  1.00  0.00    -0.016 C 
HETATM   18  C29 UNL     1       0.257  52.251 -13.345  1.00  0.00     0.020 C 
HETATM   19  C30 UNL     1       0.524  49.736 -13.193  1.00  0.00     0.002 C 
HETATM   20  C31 UNL     1       1.899  49.349 -12.606  1.00  0.00     0.007 C 
HETATM   21  C32 UNL     1       1.829  48.093 -11.746  1.00  0.00     0.014 C 
HETATM   22  C33 UNL     1       1.318  46.812 -12.482  1.00  0.00     0.003 C 
HETATM   23  C34 UNL     1       0.471  46.033 -11.451  1.00  0.00     0.020 C 
ENDROOT
BRANCH   3  24
HETATM   24  O1  UNL     1       3.611  45.892 -12.256  1.00  0.00    -0.377 OA
HETATM   25  H2  UNL     1       3.389  45.329 -11.495  1.00  0.00     0.211 HD
ENDBRANCH   3  24
BRANCH  13  26
HETATM   26  O2  UNL     1       0.071  52.241 -19.048  1.00  0.00    -0.271 OA
BRANCH  26  27
HETATM   27  C13 UNL     1       0.155  53.201 -20.096  1.00  0.00     0.303 C 
BRANCH  27  28
HETATM   28  C14 UNL     1       0.341  52.513 -21.443  1.00  0.00     0.244 C 
HETATM   29  O3  UNL     1       1.441  52.186 -21.895  1.00  0.00    -0.271 OA
HETATM   30  N2  UNL     1      -0.825  52.245 -22.125  1.00  0.00    -0.343 N 
HETATM   31  H16 UNL     1      -1.675  52.750 -21.893  1.00  0.00     0.163 HD
BRANCH  30  32
HETATM   32  C15 UNL     1      -0.787  51.683 -23.487  1.00  0.00     0.217 C 
BRANCH  32  33
HETATM   33  C16 UNL     1      -1.996  50.762 -23.627  1.00  0.00     0.284 C 
HETATM   34  O4  UNL     1      -2.645  50.318 -22.683  1.00  0.00    -0.263 OA
BRANCH  33  35
HETATM   35  O5  UNL     1      -2.222  50.450 -24.935  1.00  0.00    -0.320 OA
BRANCH  35  36
HETATM   36  C17 UNL     1      -3.178  49.403 -25.164  1.00  0.00     0.174 C 
HETATM   37  C18 UNL     1      -2.725  48.524 -26.318  1.00  0.00     0.034 C 
ENDBRANCH  35  36
ENDBRANCH  33  35
ENDBRANCH  32  33
BRANCH  32  38
HETATM   38  C19 UNL     1      -0.773  52.796 -24.556  1.00  0.00     0.183 C 
BRANCH  38  39
HETATM   39  O6  UNL     1      -2.108  53.162 -24.939  1.00  0.00    -0.388 OA
HETATM   40  H24 UNL     1      -2.027  53.795 -25.671  1.00  0.00     0.210 HD
ENDBRANCH  38  39
BRANCH  38  41
HETATM   41  C20 UNL     1       0.064  52.479 -25.778  1.00  0.00    -0.027 A 
HETATM   42  C21 UNL     1       1.295  51.829 -25.617  1.00  0.00     0.010 A 
HETATM   43  C22 UNL     1       2.079  51.502 -26.725  1.00  0.00     0.001 A 
HETATM   44  C23 UNL     1       1.633  51.815 -28.007  1.00  0.00     0.000 A 
HETATM   45  C24 UNL     1       0.415  52.477 -28.181  1.00  0.00     0.001 A 
HETATM   46  C25 UNL     1      -0.369  52.804 -27.075  1.00  0.00     0.010 A 
ENDBRANCH  38  41
ENDBRANCH  32  38
ENDBRANCH  30  32
ENDBRANCH  27  28
ENDBRANCH  26  27
ENDBRANCH  13  26
TORSDOF 11
ENDMDL
