MODEL 1
REMARK minimizedAffinity -7.10896921
REMARK CNNscore 0.651042402
REMARK CNNaffinity 6.99904585
REMARK  6 active torsions:
REMARK  status: ('A' for Active; 'I' for Inactive)
REMARK    1  A    between atoms: C2_2  and  C3_3 
REMARK    2  A    between atoms: C2_2  and  C27_30 
REMARK    3  A    between atoms: C3_3  and  C4_4 
REMARK    4  A    between atoms: C4_4  and  C5_5 
REMARK    5  A    between atoms: C5_5  and  C7_7 
REMARK    6  A    between atoms: C26_28  and  O3_29 
ROOT
HETATM    1  C7  UNL     1      -9.517   8.759  14.819  1.00  0.00    -0.002 C 
HETATM    2  C8  UNL     1      -8.375   9.548  15.510  1.00  0.00     0.006 C 
HETATM    3  C9  UNL     1      -7.063   8.819  15.195  1.00  0.00     0.010 C 
HETATM    4  C10 UNL     1      -7.455   7.773  14.155  1.00  0.00     0.027 C 
HETATM    5  C11 UNL     1      -6.545   6.605  13.854  1.00  0.00    -0.036 C 
HETATM    6  C12 UNL     1      -7.035   5.467  13.302  1.00  0.00     0.002 C 
HETATM    7  C13 UNL     1      -8.534   5.357  13.088  1.00  0.00     0.157 C 
HETATM    8  O1  UNL     1      -9.028   4.337  12.607  1.00  0.00    -0.293 OA
HETATM    9  C14 UNL     1      -9.443   6.523  13.450  1.00  0.00     0.093 C 
HETATM   10  C15 UNL     1      -8.876   7.351  14.604  1.00  0.00    -0.026 C 
HETATM   11  C16 UNL     1      -8.893   6.522  15.914  1.00  0.00     0.016 C 
HETATM   12  C17 UNL     1      -6.144   4.278  12.883  1.00  0.00    -0.008 C 
HETATM   13  C18 UNL     1      -6.350   3.177  13.958  1.00  0.00     0.021 C 
HETATM   14  C19 UNL     1      -6.535   3.704  11.481  1.00  0.00     0.022 C 
HETATM   15  C20 UNL     1      -5.388   3.123  10.653  1.00  0.00     0.080 C 
HETATM   16  C21 UNL     1      -4.282   2.580  11.518  1.00  0.00     0.131 C 
HETATM   17  O2  UNL     1      -3.835   1.445  11.356  1.00  0.00    -0.298 OA
HETATM   18  C22 UNL     1      -3.687   3.528  12.548  1.00  0.00     0.056 C 
HETATM   19  C23 UNL     1      -2.305   3.963  12.059  1.00  0.00     0.018 C 
HETATM   20  C24 UNL     1      -4.640   4.723  12.789  1.00  0.00     0.012 C 
HETATM   21  C25 UNL     1      -4.228   5.546  14.017  1.00  0.00     0.042 C 
HETATM   22  C26 UNL     1      -5.079   6.811  14.127  1.00  0.00     0.148 C 
ENDROOT
BRANCH   1  23
HETATM   23  C5  UNL     1     -10.880   8.883  15.568  1.00  0.00    -0.014 C 
HETATM   24  C6  UNL     1     -11.756   9.986  14.958  1.00  0.00     0.010 C 
BRANCH  23  25
HETATM   25  C4  UNL     1     -10.688   9.208  17.079  1.00  0.00     0.009 C 
BRANCH  25  26
HETATM   26  C3  UNL     1     -11.649  10.238  17.693  1.00  0.00     0.034 C 
BRANCH  26  27
HETATM   27  C2  UNL     1     -12.093   9.986  19.124  1.00  0.00    -0.086 C 
HETATM   28  C1  UNL     1     -13.288   9.413  19.364  1.00  0.00     0.014 C 
BRANCH  27  29
HETATM   29  C27 UNL     1     -11.159  10.291  20.292  1.00  0.00     0.005 C 
HETATM   30  C28 UNL     1     -10.749  11.762  20.384  1.00  0.00     0.014 C 
HETATM   31  C29 UNL     1     -11.709   9.797  21.631  1.00  0.00     0.014 C 
ENDBRANCH  27  29
ENDBRANCH  26  27
ENDBRANCH  25  26
ENDBRANCH  23  25
ENDBRANCH   1  23
BRANCH  22  32
HETATM   32  O3  UNL     1      -4.620   7.772  13.182  1.00  0.00    -0.391 OA
HETATM   33  H37 UNL     1      -3.716   8.023  13.437  1.00  0.00     0.210 HD
ENDBRANCH  22  32
TORSDOF 6
ENDMDL
