MODEL 1
REMARK minimizedAffinity -7.20986271
REMARK CNNscore 0.595835268
REMARK CNNaffinity 7.31396723
REMARK  20 active torsions:
REMARK  status: ('A' for Active; 'I' for Inactive)
REMARK    1  A    between atoms: C2_2  and  C3_3 
REMARK    2  A    between atoms: C2_2  and  C27_34 
REMARK    3  A    between atoms: C4_4  and  C5_5 
REMARK    4  A    between atoms: C6_6  and  C7_7 
REMARK    5  A    between atoms: C6_6  and  C10_12 
REMARK    6  A    between atoms: C7_7  and  O1_8 
REMARK    7  A    between atoms: O1_8  and  C8_9 
REMARK    8  A    between atoms: C8_9  and  C9_10 
REMARK    9  A    between atoms: C9_10  and  O2_11 
REMARK   10  A    between atoms: C14_16  and  O3_17 
REMARK   11  A    between atoms: C15_18  and  C16_19 
REMARK   12  A    between atoms: C16_19  and  C17_20 
REMARK   13  A    between atoms: C17_20  and  C18_21 
REMARK   14  A    between atoms: C18_21  and  O4_22 
REMARK   15  A    between atoms: C20_24  and  C22_26 
REMARK   16  A    between atoms: C25_30  and  O6_31 
REMARK   17  A    between atoms: C25_30  and  C26_32 
REMARK   18  A    between atoms: C26_32  and  O7_33 
REMARK   19  A    between atoms: C27_34  and  C28_35 
REMARK   20  A    between atoms: C28_35  and  C29_36 
ROOT
HETATM    1  C10 UNL     1      -2.602  49.536 -20.055  1.00  0.00     0.046 C 
HETATM    2  C11 UNL     1      -2.259  48.253 -20.815  1.00  0.00     0.013 C 
HETATM    3  C12 UNL     1      -3.276  48.190 -21.941  1.00  0.00     0.017 C 
HETATM    4  C13 UNL     1      -4.632  48.712 -21.385  1.00  0.00     0.027 C 
HETATM    5  C14 UNL     1      -4.144  49.649 -20.202  1.00  0.00     0.138 C 
HETATM    6  C15 UNL     1      -5.601  47.586 -20.806  1.00  0.00     0.029 C 
HETATM    7  C19 UNL     1      -6.735  48.293 -20.013  1.00  0.00    -0.066 C 
HETATM    8  C20 UNL     1      -7.131  48.155 -18.718  1.00  0.00    -0.021 C 
HETATM    9  C21 UNL     1      -8.311  48.854 -18.081  1.00  0.00     0.052 C 
HETATM   10  C23 UNL     1      -7.415  49.389 -20.835  1.00  0.00     0.038 C 
HETATM   11  C24 UNL     1      -6.984  49.490 -22.291  1.00  0.00     0.045 C 
HETATM   12  C25 UNL     1      -5.455  49.410 -22.556  1.00  0.00     0.090 C 
ENDROOT
BRANCH   5  13
HETATM   13  O3  UNL     1      -4.606  50.986 -20.247  1.00  0.00    -0.394 OA
HETATM   14  H19 UNL     1      -4.587  51.267 -21.187  1.00  0.00     0.210 HD
ENDBRANCH   5  13
BRANCH   6  15
HETATM   15  C16 UNL     1      -4.916  46.330 -20.212  1.00  0.00     0.012 C 
BRANCH  15  16
HETATM   16  C17 UNL     1      -4.896  45.085 -21.123  1.00  0.00     0.027 C 
BRANCH  16  17
HETATM   17  C18 UNL     1      -6.253  44.413 -21.318  1.00  0.00     0.164 C 
BRANCH  17  18
HETATM   18  O4  UNL     1      -6.121  43.231 -22.096  1.00  0.00    -0.401 OA
HETATM   19  H27 UNL     1      -5.641  42.584 -21.550  1.00  0.00     0.209 HD
ENDBRANCH  17  18
ENDBRANCH  16  17
ENDBRANCH  15  16
ENDBRANCH   6  15
BRANCH  12  20
HETATM   20  O6  UNL     1      -4.966  50.752 -22.760  1.00  0.00    -0.387 OA
HETATM   21  H36 UNL     1      -5.380  51.045 -23.600  1.00  0.00     0.210 HD
ENDBRANCH  12  20
BRANCH  12  22
HETATM   22  C26 UNL     1      -5.289  48.707 -23.947  1.00  0.00     0.202 C 
BRANCH  22  23
HETATM   23  O7  UNL     1      -6.290  49.211 -24.842  1.00  0.00    -0.398 OA
HETATM   24  H39 UNL     1      -6.202  48.709 -25.672  1.00  0.00     0.209 HD
ENDBRANCH  22  23
ENDBRANCH  12  22
BRANCH   1  25
HETATM   25  C6  UNL     1      -1.757  50.769 -20.409  1.00  0.00    -0.050 C 
HETATM   26  C5  UNL     1      -1.312  51.036 -21.660  1.00  0.00     0.005 C 
BRANCH  26  27
HETATM   27  C4  UNL     1      -1.463  50.233 -22.855  1.00  0.00     0.001 C 
HETATM   28  C3  UNL     1      -1.843  50.591 -24.094  1.00  0.00     0.006 C 
BRANCH  28  29
HETATM   29  C2  UNL     1      -2.203  51.873 -24.702  1.00  0.00    -0.067 C 
HETATM   30  C1  UNL     1      -3.261  51.890 -25.534  1.00  0.00     0.019 C 
BRANCH  29  31
HETATM   31  C27 UNL     1      -1.348  53.102 -24.441  1.00  0.00     0.041 C 
BRANCH  31  32
HETATM   32  C28 UNL     1       0.115  53.112 -24.934  1.00  0.00     0.032 C 
BRANCH  32  33
HETATM   33  C29 UNL     1       0.259  52.740 -26.387  1.00  0.00    -0.024 C 
HETATM   34  C30 UNL     1       1.215  51.985 -26.964  1.00  0.00    -0.091 C 
HETATM   35  C31 UNL     1       1.197  51.736 -28.451  1.00  0.00     0.042 C 
HETATM   36  C32 UNL     1       2.358  51.325 -26.246  1.00  0.00     0.042 C 
ENDBRANCH  32  33
ENDBRANCH  31  32
ENDBRANCH  29  31
ENDBRANCH  28  29
ENDBRANCH  26  27
BRANCH  25  37
HETATM   37  C7  UNL     1      -1.441  51.721 -19.263  1.00  0.00     0.202 C 
BRANCH  37  38
HETATM   38  O1  UNL     1      -0.143  51.491 -18.709  1.00  0.00    -0.385 OA
BRANCH  38  39
HETATM   39  C8  UNL     1       0.620  52.691 -18.636  1.00  0.00     0.194 C 
BRANCH  39  40
HETATM   40  C9  UNL     1       1.170  53.023 -20.018  1.00  0.00     0.190 C 
BRANCH  40  41
HETATM   41  O2  UNL     1       1.558  54.390 -20.095  1.00  0.00    -0.399 OA
HETATM   42  H12 UNL     1       0.743  54.919 -20.110  1.00  0.00     0.209 HD
ENDBRANCH  40  41
ENDBRANCH  39  40
ENDBRANCH  38  39
ENDBRANCH  37  38
ENDBRANCH  25  37
ENDBRANCH   1  25
BRANCH   8  43
HETATM   43  C22 UNL     1      -6.388  47.375 -17.688  1.00  0.00     0.265 C 
HETATM   44  O5  UNL     1      -6.666  46.215 -17.408  1.00  0.00    -0.302 OA
ENDBRANCH   8  43
TORSDOF 20
ENDMDL
