MODEL 1
REMARK minimizedAffinity -10.0979872
REMARK CNNscore 0.460327089
REMARK CNNaffinity 7.57696342
REMARK  14 active torsions:
REMARK  status: ('A' for Active; 'I' for Inactive)
REMARK    1  A    between atoms: O1_2  and  C2_3 
REMARK    2  A    between atoms: C2_3  and  C3_5 
REMARK    3  A    between atoms: C3_5  and  C4_6 
REMARK    4  A    between atoms: C3_5  and  N2_16 
REMARK    5  A    between atoms: C4_6  and  C5_7 
REMARK       I    between atoms: N2_16  and  C13_17 
REMARK    6  A    between atoms: C13_17  and  C14_19 
REMARK    7  A    between atoms: C14_19  and  C15_20 
REMARK    8  A    between atoms: C15_20  and  C16_21 
REMARK    9  A    between atoms: C16_21  and  O5_23 
REMARK   10  A    between atoms: O5_23  and  C17_24 
REMARK   11  A    between atoms: C17_24  and  C18_25 
REMARK   12  A    between atoms: C18_25  and  C19_27 
REMARK   13  A    between atoms: C19_27  and  O7_28 
REMARK   14  A    between atoms: C34_44  and  O9_45 
ROOT
HETATM    1  C17 UNL     1      -1.520   9.462  15.707  1.00  0.00     0.260 C 
ENDROOT
BRANCH   1   2
HETATM    2  O5  UNL     1      -2.612   9.103  16.553  1.00  0.00    -0.314 OA
BRANCH   2   3
HETATM    3  C16 UNL     1      -3.585   8.414  15.896  1.00  0.00     0.259 C 
HETATM    4  O4  UNL     1      -3.670   7.192  15.873  1.00  0.00    -0.265 OA
BRANCH   3   5
HETATM    5  C15 UNL     1      -4.471   9.326  15.083  1.00  0.00     0.120 C 
BRANCH   5   6
HETATM    6  C14 UNL     1      -5.218   8.635  13.948  1.00  0.00     0.112 C 
BRANCH   6   7
HETATM    7  C13 UNL     1      -6.551   8.075  14.393  1.00  0.00     0.218 C 
HETATM    8  N2  UNL     1      -6.734   6.767  14.023  1.00  0.00    -0.347 N 
HETATM    9  H13 UNL     1      -6.068   6.311  13.411  1.00  0.00     0.163 HD
HETATM   10  O3  UNL     1      -7.368   8.710  15.046  1.00  0.00    -0.274 OA
BRANCH   8  11
HETATM   11  C3  UNL     1      -7.956   6.008  14.358  1.00  0.00     0.188 C 
BRANCH  11  12
HETATM   12  C2  UNL     1      -8.918   5.994  13.151  1.00  0.00     0.281 C 
HETATM   13  O2  UNL     1      -8.586   5.865  11.978  1.00  0.00    -0.263 OA
BRANCH  12  14
HETATM   14  O1  UNL     1     -10.219   6.176  13.558  1.00  0.00    -0.325 OA
HETATM   15  C1  UNL     1     -10.357   7.137  14.610  1.00  0.00     0.213 C 
ENDBRANCH  12  14
ENDBRANCH  11  12
BRANCH  11  16
HETATM   16  C4  UNL     1      -7.587   4.571  14.757  1.00  0.00     0.076 C 
BRANCH  16  17
HETATM   17  C5  UNL     1      -7.171   3.706  13.608  1.00  0.00    -0.028 A 
HETATM   18  C6  UNL     1      -7.909   2.686  13.038  1.00  0.00     0.096 A 
HETATM   19  N1  UNL     1      -7.175   2.137  12.021  1.00  0.00    -0.365 N 
HETATM   20  C7  UNL     1      -5.977   2.797  11.889  1.00  0.00     0.042 A 
HETATM   21  H8  UNL     1      -7.470   1.365  11.439  1.00  0.00     0.165 HD
HETATM   22  C8  UNL     1      -4.932   2.593  10.981  1.00  0.00     0.030 A 
HETATM   23  C12 UNL     1      -5.942   3.787  12.874  1.00  0.00    -0.002 A 
HETATM   24  C9  UNL     1      -3.815   3.425  11.081  1.00  0.00     0.002 A 
HETATM   25  C10 UNL     1      -3.748   4.423  12.052  1.00  0.00     0.001 A 
HETATM   26  C11 UNL     1      -4.804   4.615  12.951  1.00  0.00     0.014 A 
ENDBRANCH  16  17
ENDBRANCH  11  16
ENDBRANCH   8  11
ENDBRANCH   6   7
ENDBRANCH   5   6
ENDBRANCH   3   5
ENDBRANCH   2   3
ENDBRANCH   1   2
BRANCH   1  27
HETATM   27  C18 UNL     1      -0.793   8.213  15.250  1.00  0.00     0.185 C 
HETATM   28  O6  UNL     1      -0.151   7.537  16.058  1.00  0.00    -0.292 OA
BRANCH  27  29
HETATM   29  C19 UNL     1      -0.856   7.851  13.746  1.00  0.00     0.128 C 
HETATM   30  C20 UNL     1      -1.599   8.954  12.924  1.00  0.00     0.047 C 
HETATM   31  C21 UNL     1      -0.863   9.091  11.579  1.00  0.00     0.009 C 
HETATM   32  C22 UNL     1       0.058   7.880  11.545  1.00  0.00     0.002 C 
HETATM   33  C23 UNL     1       1.194   7.844  10.510  1.00  0.00    -0.002 C 
HETATM   34  C36 UNL     1       0.528   7.737  13.016  1.00  0.00     0.001 C 
HETATM   35  C24 UNL     1       0.630   8.041   9.094  1.00  0.00     0.010 C 
HETATM   36  C33 UNL     1       1.920   6.468  10.629  1.00  0.00     0.031 C 
HETATM   37  C25 UNL     1       1.696   7.886   8.022  1.00  0.00     0.035 C 
HETATM   38  C26 UNL     1       2.406   6.561   8.139  1.00  0.00    -0.068 C 
HETATM   39  C27 UNL     1       2.485   5.744   7.075  1.00  0.00     0.053 C 
HETATM   40  C31 UNL     1       3.020   6.242   9.513  1.00  0.00    -0.014 C 
HETATM   41  C28 UNL     1       3.300   4.508   7.105  1.00  0.00     0.149 C 
HETATM   42  O8  UNL     1       3.307   3.763   6.127  1.00  0.00    -0.293 OA
HETATM   43  C29 UNL     1       4.167   4.268   8.313  1.00  0.00     0.084 C 
HETATM   44  C30 UNL     1       3.456   4.749   9.568  1.00  0.00     0.022 C 
HETATM   45  C32 UNL     1       4.269   7.134   9.674  1.00  0.00     0.020 C 
HETATM   46  C34 UNL     1       2.383   6.181  12.087  1.00  0.00     0.124 C 
HETATM   47  C35 UNL     1       1.259   6.378  13.130  1.00  0.00     0.045 C 
HETATM   48  C37 UNL     1       1.457   8.890  13.477  1.00  0.00     0.019 C 
BRANCH  29  49
HETATM   49  O7  UNL     1      -1.577   6.625  13.589  1.00  0.00    -0.381 OA
HETATM   50  H20 UNL     1      -2.516   6.803  13.794  1.00  0.00     0.211 HD
ENDBRANCH  29  49
BRANCH  46  51
HETATM   51  O9  UNL     1       3.497   6.991  12.437  1.00  0.00    -0.395 OA
HETATM   52  H41 UNL     1       3.841   6.673  13.290  1.00  0.00     0.210 HD
ENDBRANCH  46  51
ENDBRANCH  27  29
ENDBRANCH   1  27
TORSDOF 14
ENDMDL
