MODEL 1
REMARK minimizedAffinity -7.35922432
REMARK CNNscore 0.352223575
REMARK CNNaffinity 6.89842415
REMARK  8 active torsions:
REMARK  status: ('A' for Active; 'I' for Inactive)
REMARK    1  A    between atoms: C4_4  and  C5_5 
REMARK    2  A    between atoms: C5_5  and  C6_7 
REMARK    3  A    between atoms: C6_7  and  C7_8 
REMARK    4  A    between atoms: C7_8  and  C9_10 
REMARK    5  A    between atoms: C18_19  and  C20_21 
REMARK    6  A    between atoms: C20_21  and  O2_22 
REMARK    7  A    between atoms: C21_23  and  O3_24 
REMARK    8  A    between atoms: O3_24  and  S1_25 
ROOT
HETATM    1  C9  UNL     1      -2.217   5.881  12.632  1.00  0.00    -0.001 C 
HETATM    2  C10 UNL     1      -3.092   5.110  13.647  1.00  0.00     0.006 C 
HETATM    3  C11 UNL     1      -3.626   6.151  14.662  1.00  0.00     0.012 C 
HETATM    4  C12 UNL     1      -3.200   7.532  14.116  1.00  0.00    -0.016 C 
HETATM    5  C13 UNL     1      -4.331   7.989  13.144  1.00  0.00     0.018 C 
HETATM    6  C14 UNL     1      -2.949   8.622  15.195  1.00  0.00     0.089 A 
HETATM    7  C15 UNL     1      -4.224   9.171  15.855  1.00  0.00     0.121 A 
HETATM    8  C16 UNL     1      -3.863  10.165  16.963  1.00  0.00     0.026 C 
HETATM    9  C17 UNL     1      -3.249  11.445  16.368  1.00  0.00     0.009 C 
HETATM   10  C18 UNL     1      -2.812  12.526  17.437  1.00  0.00     0.009 C 
HETATM   11  C19 UNL     1      -2.140  11.887  18.680  1.00  0.00     0.020 C 
HETATM   12  C21 UNL     1      -1.852  13.587  16.784  1.00  0.00     0.155 C 
HETATM   13  C22 UNL     1      -2.060  13.712  15.272  1.00  0.00     0.035 C 
HETATM   14  C23 UNL     1      -1.772  12.407  14.534  1.00  0.00     0.013 C 
HETATM   15  C24 UNL     1      -2.139  11.166  15.347  1.00  0.00    -0.025 A 
HETATM   16  C25 UNL     1      -1.000  10.243  15.686  1.00  0.00     0.023 A 
HETATM   17  C26 UNL     1      -2.037   9.764  14.683  1.00  0.00    -0.011 A 
HETATM   18  C27 UNL     1      -1.618   9.729  13.208  1.00  0.00     0.013 C 
HETATM   19  C28 UNL     1      -1.396   8.355  12.556  1.00  0.00     0.011 C 
HETATM   20  C29 UNL     1      -1.838   7.173  13.422  1.00  0.00    -0.031 C 
HETATM   21  C30 UNL     1      -0.680   6.859  14.414  1.00  0.00     0.016 C 
HETATM   22 NA1  UNL     1      -2.032   8.061  14.856  1.00  0.00    -0.415 Na
ATOM     23  HA1 UNL     1      -1.195   7.593  14.510  1.00  0.00     0.153 HD
ENDROOT
BRANCH   1  24
HETATM   24  C7  UNL     1      -1.075   5.109  11.909  1.00  0.00    -0.007 C 
HETATM   25  C8  UNL     1      -0.047   4.593  12.928  1.00  0.00     0.011 C 
BRANCH  24  26
HETATM   26  C6  UNL     1      -0.392   5.784  10.703  1.00  0.00     0.087 C 
BRANCH  26  27
HETATM   27  C5  UNL     1       1.050   6.264  10.845  1.00  0.00     0.149 C 
HETATM   28  O1  UNL     1       1.628   6.364  11.921  1.00  0.00    -0.293 OA
BRANCH  27  29
HETATM   29  C4  UNL     1       1.748   6.549   9.543  1.00  0.00     0.052 C 
HETATM   30  C2  UNL     1       1.423   7.509   8.655  1.00  0.00    -0.084 C 
HETATM   31  C1  UNL     1       0.259   8.447   8.815  1.00  0.00     0.043 C 
HETATM   32  C3  UNL     1       2.230   7.693   7.399  1.00  0.00     0.043 C 
ENDBRANCH  27  29
ENDBRANCH  26  27
ENDBRANCH  24  26
ENDBRANCH   1  24
BRANCH  10  33
HETATM   33  C20 UNL     1      -4.078  13.259  17.976  1.00  0.00     0.176 C 
BRANCH  33  34
HETATM   34  O2  UNL     1      -4.496  12.801  19.256  1.00  0.00    -0.400 OA
HETATM   35  H33 UNL     1      -5.043  12.008  19.107  1.00  0.00     0.209 HD
ENDBRANCH  33  34
ENDBRANCH  10  33
BRANCH  12  36
HETATM   36  O3  UNL     1      -0.493  13.227  17.004  1.00  0.00    -0.251 OA
BRANCH  36  37
HETATM   37  S1  UNL     1       0.569  14.363  17.495  1.00  0.00     0.252 S 
HETATM   38  O4  UNL     1       1.249  13.722  18.618  1.00  0.00    -0.572 OA
HETATM   39  O5  UNL     1       1.407  14.585  16.318  1.00  0.00    -0.572 OA
HETATM   40  O6  UNL     1      -0.263  15.506  17.871  1.00  0.00    -0.572 OA
ENDBRANCH  36  37
ENDBRANCH  12  36
TORSDOF 8
ENDMDL
