MODEL 1
REMARK minimizedAffinity -6.8895154
REMARK CNNscore 0.351226836
REMARK CNNaffinity 5.84586477
REMARK  5 active torsions:
REMARK  status: ('A' for Active; 'I' for Inactive)
REMARK    1  A    between atoms: C2_2  and  C4_4 
REMARK    2  A    between atoms: C7_7  and  C8_8 
REMARK    3  A    between atoms: C8_8  and  O2_10 
REMARK    4  A    between atoms: C11_13  and  C12_14 
REMARK    5  A    between atoms: C12_14  and  O4_16 
ROOT
HETATM    1  C4  UNL     1     -18.994   0.426  15.356  1.00  0.00     0.019 C 
HETATM    2  C5  UNL     1     -18.735   1.921  15.152  1.00  0.00     0.011 C 
HETATM    3  C6  UNL     1     -17.383   2.117  15.824  1.00  0.00     0.021 C 
HETATM    4  C7  UNL     1     -16.538   0.899  15.379  1.00  0.00     0.050 C 
HETATM    5  C9  UNL     1     -15.749   1.264  14.111  1.00  0.00     0.022 C 
HETATM    6  C10 UNL     1     -15.226   0.058  13.334  1.00  0.00     0.023 C 
HETATM    7  C11 UNL     1     -16.312  -0.968  12.933  1.00  0.00     0.057 C 
HETATM    8  C13 UNL     1     -17.189  -1.356  14.173  1.00  0.00     0.011 C 
HETATM    9  C14 UNL     1     -18.292  -2.352  13.788  1.00  0.00     0.007 C 
HETATM   10  C15 UNL     1     -17.764  -3.614  13.090  1.00  0.00     0.006 C 
HETATM   11  C16 UNL     1     -16.825  -3.307  11.899  1.00  0.00     0.003 C 
HETATM   12  C17 UNL     1     -16.420  -4.567  11.013  1.00  0.00    -0.035 C 
HETATM   13  C18 UNL     1     -15.711  -5.657  11.849  1.00  0.00     0.016 C 
HETATM   14  C19 UNL     1     -17.720  -5.193  10.419  1.00  0.00     0.017 C 
HETATM   15  C20 UNL     1     -17.480  -6.249   9.349  1.00  0.00     0.080 C 
HETATM   16  C21 UNL     1     -16.592  -5.738   8.244  1.00  0.00     0.135 C 
HETATM   17  O5  UNL     1     -16.888  -5.967   7.069  1.00  0.00    -0.297 OA
HETATM   18  C22 UNL     1     -15.278  -5.044   8.642  1.00  0.00     0.017 C 
HETATM   19  C23 UNL     1     -14.238  -6.126   8.971  1.00  0.00     0.023 C 
HETATM   20  C24 UNL     1     -14.760  -4.280   7.396  1.00  0.00     0.023 C 
HETATM   21  C25 UNL     1     -15.568  -4.029   9.802  1.00  0.00     0.009 C 
HETATM   22  C26 UNL     1     -14.320  -3.271  10.294  1.00  0.00     0.007 C 
HETATM   23  C27 UNL     1     -14.689  -2.051  11.143  1.00  0.00     0.011 C 
HETATM   24  C28 UNL     1     -15.646  -2.345  12.336  1.00  0.00    -0.022 C 
HETATM   25  C29 UNL     1     -14.741  -3.036  13.413  1.00  0.00     0.017 C 
HETATM   26  C30 UNL     1     -17.589  -0.255  15.208  1.00  0.00     0.018 C 
ENDROOT
BRANCH   4  27
HETATM   27  C8  UNL     1     -15.520   0.531  16.460  1.00  0.00     0.149 C 
HETATM   28  O1  UNL     1     -15.762   0.005  17.535  1.00  0.00    -0.649 OA
BRANCH  27  29
HETATM   29  O2  UNL     1     -14.243   0.769  16.106  1.00  0.00    -0.776 OA
HETATM   30  H11 UNL     1     -13.720   0.455  16.873  1.00  0.00     0.167 HD
ENDBRANCH  27  29
ENDBRANCH   4  27
BRANCH   1  31
HETATM   31  C2  UNL     1     -20.279  -0.139  14.784  1.00  0.00    -0.088 C 
HETATM   32  C1  UNL     1     -21.041  -0.967  15.525  1.00  0.00     0.014 C 
HETATM   33  C3  UNL     1     -20.780   0.315  13.442  1.00  0.00     0.043 C 
ENDBRANCH   1  31
BRANCH   7  34
HETATM   34  C12 UNL     1     -17.174  -0.282  11.840  1.00  0.00     0.149 C 
HETATM   35  O3  UNL     1     -17.839   0.738  11.926  1.00  0.00    -0.649 OA
BRANCH  34  36
HETATM   36  O4  UNL     1     -17.214  -0.943  10.676  1.00  0.00    -0.776 OA
HETATM   37  H16 UNL     1     -17.819  -0.398  10.129  1.00  0.00     0.167 HD
ENDBRANCH  34  36
ENDBRANCH   7  34
TORSDOF 5
ENDMDL
