MODEL 1
REMARK minimizedAffinity -6.70060301
REMARK CNNscore 0.432531565
REMARK CNNaffinity 5.97873545
REMARK  12 active torsions:
REMARK  status: ('A' for Active; 'I' for Inactive)
REMARK    1  A    between atoms: C4_4  and  C5_5 
REMARK    2  A    between atoms: C5_5  and  C6_6 
REMARK    3  A    between atoms: C6_6  and  C7_7 
REMARK    4  A    between atoms: C7_7  and  C9_9 
REMARK    5  A    between atoms: C17_17  and  C18_18 
REMARK    6  A    between atoms: C18_18  and  O1_20 
REMARK    7  A    between atoms: C18_18  and  C20_21 
REMARK    8  A    between atoms: C20_21  and  O2_22 
REMARK    9  A    between atoms: C21_23  and  C22_24 
REMARK   10  A    between atoms: C22_24  and  C23_25 
REMARK   11  A    between atoms: C23_25  and  C24_26 
REMARK   12  A    between atoms: C24_26  and  O4_28 
ROOT
HETATM    1  C9  UNL     1       3.012  11.577  20.530  1.00  0.00    -0.002 C 
HETATM    2  C10 UNL     1       2.382  12.980  20.401  1.00  0.00     0.006 C 
HETATM    3  C11 UNL     1       3.343  13.943  21.090  1.00  0.00     0.011 C 
HETATM    4  C12 UNL     1       3.912  13.141  22.282  1.00  0.00    -0.032 C 
HETATM    5  C13 UNL     1       2.822  13.063  23.388  1.00  0.00     0.016 C 
HETATM    6  C14 UNL     1       5.198  13.801  22.930  1.00  0.00     0.004 C 
HETATM    7  C15 UNL     1       4.909  15.222  23.450  1.00  0.00     0.007 C 
HETATM    8  C16 UNL     1       6.089  16.163  23.650  1.00  0.00     0.009 C 
HETATM    9  C17 UNL     1       7.480  15.510  23.692  1.00  0.00     0.031 C 
HETATM   10  C21 UNL     1       7.687  14.535  22.485  1.00  0.00    -0.025 A 
HETATM   11  C25 UNL     1       6.934  14.793  21.178  1.00  0.00     0.021 A 
HETATM   12  C26 UNL     1       6.457  13.678  22.075  1.00  0.00    -0.027 A 
HETATM   13  C27 UNL     1       6.686  12.255  21.600  1.00  0.00     0.011 C 
HETATM   14  C28 UNL     1       5.498  11.753  20.805  1.00  0.00     0.011 C 
HETATM   15  C29 UNL     1       4.162  11.729  21.614  1.00  0.00    -0.032 C 
HETATM   16  C30 UNL     1       4.279  10.606  22.657  1.00  0.00     0.016 C 
ENDROOT
BRANCH   1  17
HETATM   17  C7  UNL     1       1.964  10.419  20.521  1.00  0.00    -0.014 C 
HETATM   18  C8  UNL     1       2.179   9.438  21.682  1.00  0.00     0.010 C 
BRANCH  17  19
HETATM   19  C6  UNL     1       0.481  10.818  20.373  1.00  0.00     0.008 C 
BRANCH  19  20
HETATM   20  C5  UNL     1       0.033  10.938  18.909  1.00  0.00     0.028 C 
BRANCH  20  21
HETATM   21  C4  UNL     1      -1.100  11.920  18.766  1.00  0.00    -0.025 C 
HETATM   22  C2  UNL     1      -2.416  11.639  18.700  1.00  0.00    -0.091 C 
HETATM   23  C1  UNL     1      -3.002  10.253  18.707  1.00  0.00     0.042 C 
HETATM   24  C3  UNL     1      -3.435  12.744  18.592  1.00  0.00     0.042 C 
ENDBRANCH  20  21
ENDBRANCH  19  20
ENDBRANCH  17  19
ENDBRANCH   1  17
BRANCH  10  25
HETATM   25  C22 UNL     1       9.054  13.824  22.468  1.00  0.00     0.021 C 
BRANCH  25  26
HETATM   26  C23 UNL     1       9.754  13.793  21.108  1.00  0.00     0.111 C 
BRANCH  26  27
HETATM   27  C24 UNL     1      10.499  12.502  20.918  1.00  0.00     0.139 C 
HETATM   28  O3  UNL     1      11.701  12.349  20.776  1.00  0.00    -0.650 OA
BRANCH  27  29
HETATM   29  O4  UNL     1       9.671  11.436  20.898  1.00  0.00    -0.776 OA
HETATM   30  H41 UNL     1      10.272  10.676  20.759  1.00  0.00     0.167 HD
ENDBRANCH  27  29
ENDBRANCH  26  27
ENDBRANCH  25  26
ENDBRANCH  10  25
BRANCH   9  31
HETATM   31  C18 UNL     1       8.631  16.590  23.907  1.00  0.00     0.080 C 
HETATM   32  C19 UNL     1       9.422  16.980  22.639  1.00  0.00     0.048 C 
BRANCH  31  33
HETATM   33  O1  UNL     1       9.630  16.102  24.818  1.00  0.00    -0.388 OA
HETATM   34  H33 UNL     1      10.096  16.904  25.132  1.00  0.00     0.210 HD
ENDBRANCH  31  33
BRANCH  31  35
HETATM   35  C20 UNL     1       8.038  17.897  24.507  1.00  0.00     0.201 C 
BRANCH  35  36
HETATM   36  O2  UNL     1       8.385  19.005  23.669  1.00  0.00    -0.398 OA
HETATM   37  H36 UNL     1       8.143  19.812  24.158  1.00  0.00     0.209 HD
ENDBRANCH  35  36
ENDBRANCH  31  35
ENDBRANCH   9  31
TORSDOF 12
ENDMDL
