MODEL 1
REMARK minimizedAffinity -7.60235262
REMARK CNNscore 0.563726068
REMARK CNNaffinity 6.50286865
REMARK  14 active torsions:
REMARK  status: ('A' for Active; 'I' for Inactive)
REMARK    1  A    between atoms: C4_4  and  C5_5 
REMARK    2  A    between atoms: C5_5  and  C6_6 
REMARK    3  A    between atoms: C6_6  and  C7_7 
REMARK    4  A    between atoms: C9_10  and  C10_11 
REMARK    5  A    between atoms: C12_13  and  C13_14 
REMARK    6  A    between atoms: C13_14  and  C14_15 
REMARK    7  A    between atoms: C14_15  and  C15_16 
REMARK    8  A    between atoms: C17_18  and  C18_19 
REMARK    9  A    between atoms: C18_19  and  C19_20 
REMARK   10  A    between atoms: C19_20  and  C20_21 
REMARK   11  A    between atoms: C20_21  and  O2_22 
REMARK   12  A    between atoms: C22_24  and  C24_26 
REMARK   13  A    between atoms: C27_30  and  O4_32 
REMARK   14  A    between atoms: C30_34  and  O5_35 
ROOT
HETATM    1  C15 UNL     1      -7.429  47.398 -29.756  1.00  0.00    -0.006 C 
HETATM    2  C16 UNL     1      -6.684  48.512 -30.549  1.00  0.00     0.019 C 
HETATM    3  C17 UNL     1      -7.674  46.081 -30.663  1.00  0.00     0.026 C 
HETATM    4  C21 UNL     1      -9.107  45.992 -31.209  1.00  0.00    -0.066 C 
HETATM    5  C22 UNL     1      -9.880  44.877 -31.263  1.00  0.00    -0.021 C 
HETATM    6  C23 UNL     1     -11.298  44.837 -31.769  1.00  0.00     0.052 C 
HETATM    7  C25 UNL     1      -9.630  47.339 -31.636  1.00  0.00     0.038 C 
HETATM    8  C26 UNL     1      -9.782  48.265 -30.430  1.00  0.00     0.042 C 
HETATM    9  C27 UNL     1      -8.820  47.963 -29.248  1.00  0.00     0.062 C 
HETATM   10  C28 UNL     1      -9.516  47.041 -28.225  1.00  0.00     0.046 C 
ENDROOT
BRANCH   1  11
HETATM   11  C14 UNL     1      -6.473  46.959 -28.580  1.00  0.00     0.016 C 
BRANCH  11  12
HETATM   12  C13 UNL     1      -5.216  47.809 -28.330  1.00  0.00     0.028 C 
BRANCH  12  13
HETATM   13  C12 UNL     1      -5.199  48.362 -26.924  1.00  0.00    -0.022 C 
HETATM   14  C10 UNL     1      -4.130  48.637 -26.147  1.00  0.00    -0.059 C 
HETATM   15  C11 UNL     1      -2.701  48.458 -26.598  1.00  0.00     0.046 C 
BRANCH  14  16
HETATM   16  C9  UNL     1      -4.246  49.229 -24.750  1.00  0.00     0.153 C 
HETATM   17  O1  UNL     1      -2.934  49.354 -24.162  1.00  0.00    -0.368 OA
HETATM   18  C7  UNL     1      -3.037  49.174 -22.729  1.00  0.00     0.084 C 
HETATM   19  C8  UNL     1      -2.292  47.883 -22.373  1.00  0.00     0.049 C 
HETATM   20  C30 UNL     1      -4.550  49.085 -22.432  1.00  0.00     0.155 C 
HETATM   21  C29 UNL     1      -5.097  48.504 -23.716  1.00  0.00     0.071 C 
BRANCH  18  22
HETATM   22  C6  UNL     1      -2.440  50.417 -22.032  1.00  0.00     0.044 C 
BRANCH  22  23
HETATM   23  C5  UNL     1      -1.002  50.273 -21.507  1.00  0.00     0.030 C 
BRANCH  23  24
HETATM   24  C4  UNL     1      -0.188  51.532 -21.653  1.00  0.00    -0.025 C 
HETATM   25  C2  UNL     1       0.168  52.410 -20.694  1.00  0.00    -0.091 C 
HETATM   26  C1  UNL     1       0.996  53.622 -21.038  1.00  0.00     0.042 C 
HETATM   27  C3  UNL     1      -0.187  52.306 -19.238  1.00  0.00     0.042 C 
ENDBRANCH  23  24
ENDBRANCH  22  23
ENDBRANCH  18  22
BRANCH  20  28
HETATM   28  O5  UNL     1      -4.872  48.298 -21.299  1.00  0.00    -0.392 OA
HETATM   29  H50 UNL     1      -5.840  48.196 -21.274  1.00  0.00     0.210 HD
ENDBRANCH  20  28
ENDBRANCH  14  16
ENDBRANCH  12  13
ENDBRANCH  11  12
ENDBRANCH   1  11
BRANCH   3  30
HETATM   30  C18 UNL     1      -6.599  45.906 -31.776  1.00  0.00     0.012 C 
BRANCH  30  31
HETATM   31  C19 UNL     1      -5.614  44.746 -31.581  1.00  0.00     0.027 C 
BRANCH  31  32
HETATM   32  C20 UNL     1      -5.614  43.750 -32.734  1.00  0.00     0.164 C 
BRANCH  32  33
HETATM   33  O2  UNL     1      -6.829  43.857 -33.469  1.00  0.00    -0.401 OA
HETATM   34  H34 UNL     1      -7.558  43.671 -32.851  1.00  0.00     0.209 HD
ENDBRANCH  32  33
ENDBRANCH  31  32
ENDBRANCH  30  31
ENDBRANCH   3  30
BRANCH   9  35
HETATM   35  O4  UNL     1      -8.646  49.199 -28.534  1.00  0.00    -0.389 OA
HETATM   36  H46 UNL     1      -8.459  49.911 -29.165  1.00  0.00     0.210 HD
ENDBRANCH   9  35
BRANCH   5  37
HETATM   37  C24 UNL     1      -9.419  43.526 -30.806  1.00  0.00     0.265 C 
HETATM   38  O3  UNL     1      -8.712  42.774 -31.465  1.00  0.00    -0.302 OA
ENDBRANCH   5  37
TORSDOF 14
ENDMDL
