MODEL 1
REMARK minimizedAffinity -9.85067749
REMARK  7 active torsions:
REMARK  status: ('A' for Active; 'I' for Inactive)
REMARK    1  A    between atoms: C2_2  and  C3_3 
REMARK    2  A    between atoms: C2_2  and  C9_11 
REMARK    3  A    between atoms: C3_3  and  C4_4 
REMARK    4  A    between atoms: C4_4  and  C5_5 
REMARK    5  A    between atoms: C5_5  and  O1_6 
REMARK    6  A    between atoms: C5_5  and  C6_7 
REMARK    7  A    between atoms: C6_7  and  O2_10 
ROOT
HETATM    1  C9  UNL     1      -1.603   6.406  12.853  1.00  0.00    -0.001 C 
HETATM    2  C10 UNL     1      -1.583   7.379  14.068  1.00  0.00     0.007 C 
HETATM    3  C11 UNL     1      -0.313   8.241  13.952  1.00  0.00     0.015 C 
HETATM    4  C12 UNL     1       0.212   7.988  12.528  1.00  0.00    -0.004 C 
HETATM    5  C13 UNL     1      -0.568   8.944  11.573  1.00  0.00     0.021 C 
HETATM    6  C14 UNL     1       1.677   8.213  12.212  1.00  0.00     0.007 C 
HETATM    7  C15 UNL     1       2.340   7.565  11.227  1.00  0.00     0.007 C 
HETATM    8  C16 UNL     1       1.561   6.490  10.474  1.00  0.00     0.157 C 
HETATM    9  O3  UNL     1       2.056   5.921   9.502  1.00  0.00    -0.293 OA
HETATM   10  C17 UNL     1       0.153   6.091  10.910  1.00  0.00     0.094 C 
HETATM   11  C18 UNL     1      -0.119   6.459  12.368  1.00  0.00    -0.022 C 
HETATM   12  C19 UNL     1       0.749   5.532  13.277  1.00  0.00     0.017 C 
HETATM   13  C20 UNL     1       3.818   7.837  10.808  1.00  0.00    -0.007 C 
HETATM   14  C21 UNL     1       3.822   8.147   9.289  1.00  0.00     0.021 C 
HETATM   15  C22 UNL     1       4.631   6.555  11.135  1.00  0.00     0.022 C 
HETATM   16  C23 UNL     1       6.126   6.689  10.924  1.00  0.00     0.080 C 
HETATM   17  C24 UNL     1       6.660   7.816  11.768  1.00  0.00     0.135 C 
HETATM   18  O4  UNL     1       7.577   7.621  12.564  1.00  0.00    -0.297 OA
HETATM   19  C25 UNL     1       6.042   9.200  11.547  1.00  0.00     0.018 C 
HETATM   20  C26 UNL     1       6.588   9.753  10.213  1.00  0.00     0.023 C 
HETATM   21  C27 UNL     1       6.571  10.167  12.636  1.00  0.00     0.023 C 
HETATM   22  C28 UNL     1       4.456   9.082  11.576  1.00  0.00     0.021 C 
HETATM   23  C29 UNL     1       3.919   9.110  13.018  1.00  0.00     0.090 C 
HETATM   24  C30 UNL     1       2.422   9.226  12.998  1.00  0.00     0.157 C 
HETATM   25  O5  UNL     1       1.840  10.107  13.620  1.00  0.00    -0.293 OA
ENDROOT
BRANCH   1  26
HETATM   26  C2  UNL     1      -2.272   5.039  13.210  1.00  0.00    -0.014 C 
HETATM   27  C1  UNL     1      -3.789   5.229  13.396  1.00  0.00     0.010 C 
BRANCH  26  28
HETATM   28  C3  UNL     1      -1.978   3.955  12.144  1.00  0.00     0.007 C 
BRANCH  28  29
HETATM   29  C4  UNL     1      -3.153   3.591  11.223  1.00  0.00     0.035 C 
BRANCH  29  30
HETATM   30  C5  UNL     1      -4.080   2.480  11.744  1.00  0.00     0.151 C 
BRANCH  30  31
HETATM   31  O1  UNL     1      -3.480   1.211  11.399  1.00  0.00    -0.393 OA
HETATM   32  H10 UNL     1      -2.641   1.147  11.886  1.00  0.00     0.210 HD
ENDBRANCH  30  31
BRANCH  30  33
HETATM   33  C6  UNL     1      -5.537   2.450  11.195  1.00  0.00     0.076 C 
HETATM   34  C7  UNL     1      -6.144   1.049  11.161  1.00  0.00     0.048 C 
HETATM   35  C8  UNL     1      -6.488   3.414  11.915  1.00  0.00     0.048 C 
BRANCH  33  36
HETATM   36  O2  UNL     1      -5.462   2.899   9.825  1.00  0.00    -0.388 OA
HETATM   37  H17 UNL     1      -4.940   3.725   9.865  1.00  0.00     0.210 HD
ENDBRANCH  33  36
ENDBRANCH  30  33
ENDBRANCH  29  30
ENDBRANCH  28  29
ENDBRANCH  26  28
ENDBRANCH   1  26
TORSDOF 7
ENDMDL
