MODEL 1
REMARK minimizedAffinity -8.80200291
REMARK CNNscore 0.604573965
REMARK CNNaffinity 7.29464149
REMARK  13 active torsions:
REMARK  status: ('A' for Active; 'I' for Inactive)
REMARK    1  A    between atoms: O1_2  and  C2_3 
REMARK    2  A    between atoms: C2_3  and  C3_4 
REMARK    3  A    between atoms: C2_3  and  C33_42 
REMARK    4  A    between atoms: C3_4  and  C5_6 
REMARK    5  A    between atoms: C8_10  and  O3_11 
REMARK    6  A    between atoms: C12_15  and  C14_17 
REMARK    7  A    between atoms: C17_20  and  C19_22 
REMARK    8  A    between atoms: C20_24  and  C21_25 
REMARK    9  A    between atoms: C22_27  and  O6_28 
REMARK   10  A    between atoms: C22_27  and  C23_29 
REMARK   11  A    between atoms: C23_29  and  O7_30 
REMARK   12  A    between atoms: C33_42  and  C35_44 
REMARK   13  A    between atoms: C35_44  and  O11_46 
ROOT
HETATM    1  C5  UNL     1     -12.022  46.851 -25.029  1.00  0.00     0.137 C 
HETATM    2  O2  UNL     1     -10.773  46.257 -24.632  1.00  0.00    -0.349 OA
HETATM    3  C6  UNL     1      -9.715  46.231 -25.581  1.00  0.00     0.167 C 
HETATM    4  C7  UNL     1     -10.143  45.516 -26.865  1.00  0.00     0.100 C 
HETATM    5  C8  UNL     1     -11.564  45.847 -27.313  1.00  0.00     0.129 C 
HETATM    6  C9  UNL     1     -12.160  47.031 -26.555  1.00  0.00     0.040 C 
HETATM    7  C10 UNL     1     -13.536  47.442 -27.066  1.00  0.00     0.015 C 
HETATM    8  C11 UNL     1      -9.128  47.644 -25.784  1.00  0.00     0.082 C 
HETATM    9  C12 UNL     1      -7.651  47.528 -25.396  1.00  0.00     0.009 C 
HETATM   10  C13 UNL     1      -6.806  47.169 -26.637  1.00  0.00     0.020 C 
HETATM   11  C32 UNL     1      -7.709  46.346 -24.436  1.00  0.00     0.183 C 
HETATM   12  O9  UNL     1      -8.642  45.438 -25.026  1.00  0.00    -0.354 OA
ENDROOT
BRANCH   9  13
HETATM   13  C14 UNL     1      -7.079  48.777 -24.706  1.00  0.00     0.133 C 
HETATM   14  C15 UNL     1      -7.903  49.350 -23.564  1.00  0.00     0.036 C 
HETATM   15  C16 UNL     1      -6.869  50.179 -22.835  1.00  0.00     0.043 C 
HETATM   16  C17 UNL     1      -5.585  49.346 -22.980  1.00  0.00     0.084 C 
HETATM   17  C18 UNL     1      -5.407  48.426 -21.768  1.00  0.00     0.049 C 
HETATM   18  O8  UNL     1      -5.793  48.495 -24.127  1.00  0.00    -0.372 OA
BRANCH  16  19
HETATM   19  C19 UNL     1      -4.357  50.248 -23.240  1.00  0.00     0.160 C 
HETATM   20  O4  UNL     1      -4.075  50.382 -24.653  1.00  0.00    -0.375 OA
HETATM   21  C20 UNL     1      -3.520  51.689 -24.880  1.00  0.00     0.152 C 
HETATM   22  C29 UNL     1      -3.299  52.318 -23.506  1.00  0.00     0.041 C 
HETATM   23  C30 UNL     1      -4.410  51.678 -22.695  1.00  0.00     0.016 C 
HETATM   24  C31 UNL     1      -4.201  51.812 -21.196  1.00  0.00     0.012 C 
BRANCH  21  25
HETATM   25  C21 UNL     1      -2.277  51.708 -25.803  1.00  0.00     0.158 C 
HETATM   26  O5  UNL     1      -1.440  52.766 -25.305  1.00  0.00    -0.345 OA
HETATM   27  C22 UNL     1      -0.245  53.031 -26.035  1.00  0.00     0.187 C 
HETATM   28  C24 UNL     1       0.630  51.768 -26.042  1.00  0.00     0.046 C 
HETATM   29  C25 UNL     1       1.982  51.926 -26.738  1.00  0.00     0.015 C 
HETATM   30  C26 UNL     1      -0.151  50.590 -26.625  1.00  0.00     0.016 C 
HETATM   31  C27 UNL     1      -1.487  50.377 -25.889  1.00  0.00     0.014 C 
HETATM   32  C28 UNL     1      -2.250  49.258 -26.604  1.00  0.00     0.012 C 
BRANCH  27  33
HETATM   33  O6  UNL     1       0.442  54.035 -25.277  1.00  0.00    -0.363 OA
HETATM   34  H34 UNL     1       0.257  53.790 -24.353  1.00  0.00     0.213 HD
ENDBRANCH  27  33
BRANCH  27  35
HETATM   35  C23 UNL     1      -0.557  53.676 -27.406  1.00  0.00     0.232 C 
BRANCH  35  36
HETATM   36  O7  UNL     1      -0.517  52.726 -28.469  1.00  0.00    -0.396 OA
HETATM   37  H37 UNL     1       0.278  52.182 -28.290  1.00  0.00     0.209 HD
ENDBRANCH  35  36
ENDBRANCH  27  35
ENDBRANCH  21  25
ENDBRANCH  16  19
ENDBRANCH   9  13
BRANCH   1  38
HETATM   38  C3  UNL     1     -13.134  46.161 -24.168  1.00  0.00     0.041 C 
HETATM   39  C4  UNL     1     -12.632  45.546 -22.862  1.00  0.00     0.015 C 
BRANCH  38  40
HETATM   40  C2  UNL     1     -14.572  46.784 -24.071  1.00  0.00     0.141 C 
BRANCH  40  41
HETATM   41  O1  UNL     1     -14.713  47.668 -22.955  1.00  0.00    -0.389 OA
HETATM   42  C1  UNL     1     -14.170  47.135 -21.751  1.00  0.00     0.202 C 
ENDBRANCH  40  41
BRANCH  40  43
HETATM   43  C33 UNL     1     -15.811  45.862 -24.182  1.00  0.00     0.109 C 
HETATM   44  C34 UNL     1     -17.023  46.455 -23.447  1.00  0.00     0.024 C 
BRANCH  43  45
HETATM   45  C35 UNL     1     -15.616  44.444 -23.716  1.00  0.00     0.145 C 
HETATM   46  O10 UNL     1     -15.261  43.508 -24.420  1.00  0.00    -0.650 OA
BRANCH  45  47
HETATM   47  O11 UNL     1     -15.925  44.220 -22.430  1.00  0.00    -0.776 OA
HETATM   48  H60 UNL     1     -15.757  43.266 -22.294  1.00  0.00     0.167 HD
ENDBRANCH  45  47
ENDBRANCH  43  45
ENDBRANCH  40  43
ENDBRANCH  38  40
ENDBRANCH   1  38
BRANCH   5  49
HETATM   49  O3  UNL     1     -11.549  46.130 -28.716  1.00  0.00    -0.395 OA
HETATM   50  H13 UNL     1     -11.281  45.309 -29.164  1.00  0.00     0.210 HD
ENDBRANCH   5  49
TORSDOF 13
ENDMDL
