MODEL 1
REMARK minimizedAffinity -7.22844648
REMARK CNNscore 0.703470469
REMARK CNNaffinity 6.97698641
REMARK  9 active torsions:
REMARK  status: ('A' for Active; 'I' for Inactive)
REMARK    1  A    between atoms: C2_2  and  O1_3 
REMARK    2  A    between atoms: O1_3  and  C3_4 
REMARK    3  A    between atoms: C3_4  and  C4_6 
REMARK    4  A    between atoms: C5_7  and  C6_8 
REMARK    5  A    between atoms: C12_16  and  C13_17 
REMARK    6  A    between atoms: C24_30  and  C25_31 
REMARK    7  A    between atoms: C25_31  and  O6_32 
REMARK    8  A    between atoms: C32_40  and  O8_42 
REMARK    9  A    between atoms: C35_44  and  O9_45 
ROOT
HETATM    1  C4  UNL     1       5.514  53.009  -7.158  1.00  0.00     0.165 C 
HETATM    2  C5  UNL     1       5.626  54.273  -7.625  1.00  0.00     0.053 C 
HETATM    3  C7  UNL     1       4.383  55.064  -7.637  1.00  0.00    -0.002 C 
HETATM    4  C8  UNL     1       4.266  56.328  -7.144  1.00  0.00    -0.066 C 
HETATM    5  C9  UNL     1       2.952  57.077  -6.988  1.00  0.00     0.042 C 
HETATM    6  C10 UNL     1       2.767  57.772  -5.641  1.00  0.00     0.083 C 
HETATM    7  C11 UNL     1       3.862  57.490  -4.636  1.00  0.00     0.136 C 
HETATM    8  O4  UNL     1       3.583  57.399  -3.437  1.00  0.00    -0.297 OA
HETATM    9  C12 UNL     1       5.307  57.425  -5.120  1.00  0.00     0.092 C 
HETATM   10  C21 UNL     1       5.404  57.192  -6.636  1.00  0.00     0.052 C 
HETATM   11  C22 UNL     1       3.196  54.257  -8.039  1.00  0.00     0.044 C 
HETATM   12  C23 UNL     1       3.167  52.955  -7.472  1.00  0.00     0.101 C 
HETATM   13  O5  UNL     1       4.261  52.509  -6.739  1.00  0.00    -0.302 OA
HETATM   14  C24 UNL     1       2.096  52.069  -7.667  1.00  0.00     0.034 C 
HETATM   15  C26 UNL     1       1.081  52.527  -8.490  1.00  0.00     0.090 C 
HETATM   16  O7  UNL     1      -0.064  51.806  -8.807  1.00  0.00    -0.341 OA
HETATM   17  C27 UNL     1      -0.935  52.870  -9.243  1.00  0.00     0.175 C 
HETATM   18  C28 UNL     1      -0.054  53.848 -10.033  1.00  0.00     0.079 C 
HETATM   19  C29 UNL     1      -0.819  55.104 -10.298  1.00  0.00    -0.019 C 
HETATM   20  C30 UNL     1      -2.159  55.068 -10.446  1.00  0.00    -0.027 C 
HETATM   21  C31 UNL     1      -2.998  53.806 -10.302  1.00  0.00     0.067 C 
HETATM   22  C32 UNL     1      -2.174  52.495 -10.077  1.00  0.00     0.085 C 
HETATM   23  C33 UNL     1      -3.018  51.428  -9.385  1.00  0.00     0.049 C 
HETATM   24  C34 UNL     1       1.121  53.782  -9.125  1.00  0.00     0.021 C 
HETATM   25  C35 UNL     1       2.202  54.628  -8.954  1.00  0.00     0.091 C 
ENDROOT
BRANCH   2  26
HETATM   26  C6  UNL     1       6.879  54.825  -8.202  1.00  0.00     0.273 C 
HETATM   27  O3  UNL     1       7.217  54.592  -9.358  1.00  0.00    -0.301 OA
ENDBRANCH   2  26
BRANCH   1  28
HETATM   28  C3  UNL     1       6.616  52.014  -7.062  1.00  0.00     0.318 C 
HETATM   29  O2  UNL     1       7.529  52.112  -6.256  1.00  0.00    -0.257 OA
BRANCH  28  30
HETATM   30  O1  UNL     1       6.412  50.963  -7.889  1.00  0.00    -0.316 OA
BRANCH  30  31
HETATM   31  C2  UNL     1       6.247  51.280  -9.284  1.00  0.00     0.175 C 
HETATM   32  C1  UNL     1       7.075  50.317 -10.116  1.00  0.00     0.034 C 
ENDBRANCH  30  31
ENDBRANCH  28  30
ENDBRANCH   1  28
BRANCH  25  33
HETATM   33  O9  UNL     1       2.239  55.797  -9.658  1.00  0.00    -0.354 OA
HETATM   34  C36 UNL     1       3.120  55.690 -10.778  1.00  0.00     0.210 C 
ENDBRANCH  25  33
BRANCH   9  35
HETATM   35  C13 UNL     1       6.147  58.633  -4.717  1.00  0.00    -0.046 A 
HETATM   36  C14 UNL     1       5.619  59.671  -3.931  1.00  0.00     0.010 A 
HETATM   37  C15 UNL     1       6.371  60.799  -3.591  1.00  0.00     0.031 A 
HETATM   38  C16 UNL     1       7.680  60.871  -4.079  1.00  0.00     0.042 A 
HETATM   39  N1  UNL     1       8.636  61.848  -3.910  1.00  0.00    -0.365 N 
HETATM   40  C19 UNL     1       8.242  59.878  -4.880  1.00  0.00    -0.008 A 
HETATM   41  C17 UNL     1       9.784  61.504  -4.580  1.00  0.00     0.089 A 
HETATM   42  H14 UNL     1       8.516  62.690  -3.364  1.00  0.00     0.165 HD
HETATM   43  C18 UNL     1       9.568  60.290  -5.191  1.00  0.00     0.030 A 
HETATM   44  C20 UNL     1       7.467  58.745  -5.201  1.00  0.00     0.021 A 
ENDBRANCH   9  35
BRANCH  14  45
HETATM   45  C25 UNL     1       2.041  50.714  -7.022  1.00  0.00     0.208 C 
BRANCH  45  46
HETATM   46  O6  UNL     1       1.825  49.708  -8.006  1.00  0.00    -0.396 OA
HETATM   47  H22 UNL     1       1.062  49.979  -8.542  1.00  0.00     0.209 HD
ENDBRANCH  45  46
ENDBRANCH  14  45
BRANCH  22  48
HETATM   48  O8  UNL     1      -1.814  51.943 -11.354  1.00  0.00    -0.387 OA
HETATM   49  H32 UNL     1      -1.532  52.663 -11.946  1.00  0.00     0.210 HD
ENDBRANCH  22  48
TORSDOF 9
ENDMDL
