MODEL 1
REMARK minimizedAffinity -8.26089573
REMARK CNNscore 0.786950529
REMARK CNNaffinity 7.56284714
REMARK  10 active torsions:
REMARK  status: ('A' for Active; 'I' for Inactive)
REMARK    1  A    between atoms: C2_2  and  C3_3 
REMARK    2  A    between atoms: C3_3  and  C4_4 
REMARK    3  A    between atoms: C4_4  and  O1_5 
REMARK    4  A    between atoms: O1_5  and  C5_6 
REMARK    5  A    between atoms: C5_6  and  C6_7 
REMARK    6  A    between atoms: C10_11  and  C12_13 
REMARK    7  A    between atoms: C12_13  and  C13_15 
REMARK    8  A    between atoms: C13_15  and  S1_16 
REMARK    9  A    between atoms: S1_16  and  C14_17 
REMARK   10  A    between atoms: C15_20  and  C16_21 
ROOT
HETATM    1  C12 UNL     1      -0.406  51.540 -19.814  1.00  0.00     0.171 C 
HETATM    2  O2  UNL     1       0.526  50.831 -20.207  1.00  0.00    -0.294 OA
ENDROOT
BRANCH   1   3
HETATM    3  C10 UNL     1      -1.657  50.891 -19.184  1.00  0.00     0.129 C 
HETATM    4  C9  UNL     1      -1.858  49.452 -19.654  1.00  0.00     0.076 C 
HETATM    5  C8  UNL     1      -2.857  49.575 -20.794  1.00  0.00     0.141 C 
HETATM    6  C7  UNL     1      -3.735  48.345 -20.929  1.00  0.00     0.065 C 
HETATM    7  C22 UNL     1      -3.581  50.833 -20.440  1.00  0.00     0.279 C 
HETATM    8  C23 UNL     1      -2.229  49.708 -22.145  1.00  0.00     0.278 C 
HETATM    9  C6  UNL     1      -3.836  48.102 -22.425  1.00  0.00     0.157 C 
HETATM   10  O6  UNL     1      -2.723  48.782 -23.011  1.00  0.00    -0.313 OA
HETATM   11  O3  UNL     1      -2.875  51.553 -19.521  1.00  0.00    -0.301 OA
HETATM   12  O4  UNL     1      -4.643  51.205 -20.910  1.00  0.00    -0.264 OA
HETATM   13  O5  UNL     1      -1.392  50.544 -22.448  1.00  0.00    -0.264 OA
HETATM   14  C11 UNL     1      -1.487  50.965 -17.666  1.00  0.00     0.055 C 
BRANCH   9  15
HETATM   15  C5  UNL     1      -5.148  48.578 -23.061  1.00  0.00     0.200 C 
BRANCH  15  16
HETATM   16  O1  UNL     1      -4.902  49.255 -24.292  1.00  0.00    -0.389 OA
BRANCH  16  17
HETATM   17  C4  UNL     1      -4.903  48.412 -25.441  1.00  0.00     0.167 C 
BRANCH  17  18
HETATM   18  C3  UNL     1      -3.626  48.543 -26.271  1.00  0.00     0.026 C 
BRANCH  18  19
HETATM   19  C2  UNL     1      -3.831  48.363 -27.778  1.00  0.00    -0.002 C 
HETATM   20  C1  UNL     1      -5.253  47.992 -28.173  1.00  0.00     0.005 C 
ENDBRANCH  18  19
ENDBRANCH  17  18
ENDBRANCH  16  17
ENDBRANCH  15  16
ENDBRANCH   9  15
ENDBRANCH   1   3
BRANCH   1  21
HETATM   21  C13 UNL     1      -0.393  53.063 -19.875  1.00  0.00     0.164 C 
BRANCH  21  22
HETATM   22  S1  UNL     1       1.253  53.721 -20.260  1.00  0.00    -0.085 SA
BRANCH  22  23
HETATM   23  C14 UNL     1       1.140  53.841 -21.972  1.00  0.00     0.161 A 
HETATM   24  N1  UNL     1       0.583  53.008 -22.813  1.00  0.00    -0.320 N 
HETATM   25  C15 UNL     1       0.844  53.590 -24.044  1.00  0.00     0.134 A 
ATOM     26  H1  UNL     1       0.081  52.143 -22.613  1.00  0.00     0.169 HD
HETATM   27  N2  UNL     1       1.456  54.782 -23.962  1.00  0.00    -0.283 N 
HETATM   28  N3  UNL     1       1.649  54.906 -22.638  1.00  0.00    -0.278 N 
ATOM     29  H2  UNL     1       1.710  55.426 -24.711  1.00  0.00     0.188 HD
HETATM   30  H26 UNL     1       2.113  55.725 -22.263  1.00  0.00     0.189 HD
BRANCH  25  31
HETATM   31  C16 UNL     1       0.408  52.974 -25.292  1.00  0.00     0.031 A 
HETATM   32  C17 UNL     1       0.374  51.568 -25.356  1.00  0.00     0.017 A 
HETATM   33  C18 UNL     1      -0.050  50.907 -26.512  1.00  0.00     0.001 A 
HETATM   34  C19 UNL     1      -0.442  51.642 -27.626  1.00  0.00     0.002 A 
HETATM   35  C20 UNL     1      -0.399  53.036 -27.586  1.00  0.00     0.025 A 
HETATM   36  C21 UNL     1       0.027  53.704 -26.430  1.00  0.00     0.048 A 
HETATM   37 CL1  UNL     1       0.107  55.432 -26.528  1.00  0.00    -0.083 Cl
ENDBRANCH  25  31
ENDBRANCH  22  23
ENDBRANCH  21  22
ENDBRANCH   1  21
TORSDOF 10
ENDMDL
