MODEL 1
REMARK minimizedAffinity -6.68170118
REMARK CNNscore 0.599685073
REMARK CNNaffinity 6.87667656
REMARK  12 active torsions:
REMARK  status: ('A' for Active; 'I' for Inactive)
REMARK    1  A    between atoms: C2_2  and  C3_3 
REMARK    2  A    between atoms: C2_2  and  C32_39 
REMARK    3  A    between atoms: C3_3  and  C4_5 
REMARK    4  A    between atoms: C4_5  and  O2_6 
REMARK    5  A    between atoms: C4_5  and  C7_10 
REMARK    6  A    between atoms: O2_6  and  C5_7 
REMARK    7  A    between atoms: C7_10  and  C9_12 
REMARK    8  A    between atoms: C10_13  and  O4_14 
REMARK    9  A    between atoms: O4_14  and  C11_15 
REMARK   10  A    between atoms: C24_30  and  O7_31 
REMARK   11  A    between atoms: C32_39  and  C34_41 
REMARK   12  A    between atoms: C34_41  and  O8_42 
ROOT
HETATM    1  C9  UNL     1       1.837  53.033  -8.983  1.00  0.00     0.031 C 
HETATM    2  C10 UNL     1       3.045  52.516  -9.826  1.00  0.00     0.138 C 
HETATM    3  C13 UNL     1       3.752  53.749 -10.406  1.00  0.00     0.043 C 
HETATM    4  C14 UNL     1       3.138  54.988  -9.720  1.00  0.00    -0.030 C 
HETATM    5  C15 UNL     1       3.223  56.162 -10.721  1.00  0.00     0.016 C 
HETATM    6  C16 UNL     1       3.951  55.256  -8.361  1.00  0.00     0.004 C 
HETATM    7  C17 UNL     1       4.800  56.599  -8.377  1.00  0.00     0.007 C 
HETATM    8  C18 UNL     1       5.298  57.189  -7.019  1.00  0.00     0.007 C 
HETATM    9  C19 UNL     1       4.395  56.868  -5.790  1.00  0.00     0.008 C 
HETATM   10  C20 UNL     1       5.014  57.191  -4.420  1.00  0.00     0.056 C 
HETATM   11  C21 UNL     1       5.534  58.623  -4.325  1.00  0.00     0.018 C 
HETATM   12  C22 UNL     1       6.085  56.175  -4.045  1.00  0.00     0.133 C 
HETATM   13  O6  UNL     1       7.168  56.497  -3.554  1.00  0.00    -0.297 OA
HETATM   14  C23 UNL     1       5.700  54.720  -4.167  1.00  0.00     0.111 C 
HETATM   15  C24 UNL     1       5.178  54.446  -5.570  1.00  0.00     0.134 C 
HETATM   16  C25 UNL     1       4.020  55.413  -5.915  1.00  0.00    -0.001 A 
HETATM   17  C26 UNL     1       2.739  54.660  -5.855  1.00  0.00     0.024 A 
HETATM   18  C27 UNL     1       3.041  55.364  -7.155  1.00  0.00    -0.025 A 
HETATM   19  C28 UNL     1       1.867  56.254  -7.501  1.00  0.00     0.011 C 
HETATM   20  C29 UNL     1       0.940  55.490  -8.453  1.00  0.00     0.011 C 
HETATM   21  C30 UNL     1       1.638  54.527  -9.469  1.00  0.00    -0.030 C 
HETATM   22  C31 UNL     1       0.774  54.519 -10.758  1.00  0.00     0.016 C 
ENDROOT
BRANCH   1  23
HETATM   23  C7  UNL     1       0.618  52.038  -8.941  1.00  0.00     0.026 C 
HETATM   24  C8  UNL     1       1.076  50.573  -9.035  1.00  0.00     0.013 C 
BRANCH  23  25
HETATM   25  C4  UNL     1      -0.409  52.342 -10.077  1.00  0.00     0.210 C 
BRANCH  25  26
HETATM   26  C3  UNL     1      -1.794  52.785  -9.540  1.00  0.00     0.184 C 
HETATM   27  O1  UNL     1      -2.177  52.514  -8.399  1.00  0.00    -0.290 OA
BRANCH  26  28
HETATM   28  C2  UNL     1      -2.691  53.592 -10.433  1.00  0.00    -0.013 C 
HETATM   29  C1  UNL     1      -2.418  54.908 -10.481  1.00  0.00     0.023 C 
BRANCH  28  30
HETATM   30  C32 UNL     1      -3.823  52.875 -11.142  1.00  0.00     0.041 C 
HETATM   31  C33 UNL     1      -4.088  51.454 -10.627  1.00  0.00     0.017 C 
BRANCH  30  32
HETATM   32  C34 UNL     1      -3.599  52.863 -12.667  1.00  0.00     0.173 C 
BRANCH  32  33
HETATM   33  O8  UNL     1      -4.354  53.881 -13.313  1.00  0.00    -0.400 OA
HETATM   34  H50 UNL     1      -5.282  53.580 -13.336  1.00  0.00     0.209 HD
ENDBRANCH  32  33
ENDBRANCH  30  32
ENDBRANCH  28  30
ENDBRANCH  26  28
ENDBRANCH  25  26
BRANCH  25  35
HETATM   35  O2  UNL     1      -0.555  51.170 -10.899  1.00  0.00    -0.308 OA
BRANCH  35  36
HETATM   36  C5  UNL     1      -0.337  51.388 -12.227  1.00  0.00     0.255 C 
HETATM   37  C6  UNL     1      -0.058  50.091 -12.921  1.00  0.00     0.126 C 
HETATM   38  O3  UNL     1      -0.338  52.483 -12.772  1.00  0.00    -0.266 OA
ENDBRANCH  35  36
ENDBRANCH  25  35
ENDBRANCH  23  25
ENDBRANCH   1  23
BRANCH   2  39
HETATM   39  O4  UNL     1       2.622  51.686 -10.925  1.00  0.00    -0.316 OA
BRANCH  39  40
HETATM   40  C11 UNL     1       3.591  50.860 -11.420  1.00  0.00     0.255 C 
HETATM   41  C12 UNL     1       4.515  50.413 -10.329  1.00  0.00     0.126 C 
HETATM   42  O5  UNL     1       3.677  50.483 -12.581  1.00  0.00    -0.266 OA
ENDBRANCH  39  40
ENDBRANCH   2  39
BRANCH  15  43
HETATM   43  O7  UNL     1       6.243  54.531  -6.508  1.00  0.00    -0.394 OA
HETATM   44  H34 UNL     1       6.924  53.883  -6.256  1.00  0.00     0.210 HD
ENDBRANCH  15  43
TORSDOF 12
ENDMDL
