MODEL 1
REMARK minimizedAffinity -8.68203926
REMARK CNNscore 0.566605747
REMARK CNNaffinity 6.16241884
REMARK  13 active torsions:
REMARK  status: ('A' for Active; 'I' for Inactive)
REMARK    1  A    between atoms: C19_21  and  O3_22 
REMARK    2  A    between atoms: C19_21  and  C20_23 
REMARK    3  A    between atoms: C20_23  and  C21_25 
REMARK    4  A    between atoms: C21_25  and  O5_26 
REMARK    5  A    between atoms: O5_26  and  C22_27 
REMARK    6  A    between atoms: C22_27  and  C23_29 
REMARK    7  A    between atoms: C23_29  and  C24_30 
REMARK    8  A    between atoms: C24_30  and  C25_31 
REMARK       I    between atoms: C25_31  and  N1_33 
REMARK    9  A    between atoms: N1_33  and  C26_34 
REMARK   10  A    between atoms: C26_34  and  C27_35 
REMARK   11  A    between atoms: C26_34  and  C34_42 
REMARK   12  A    between atoms: C27_35  and  C28_36 
REMARK   13  A    between atoms: C34_42  and  O9_44 
ROOT
HETATM    1  C20 UNL     1     -10.687  47.718 -26.005  1.00  0.00     0.185 C 
HETATM    2  O4  UNL     1     -10.697  47.339 -24.827  1.00  0.00    -0.292 OA
ENDROOT
BRANCH   1   3
HETATM    3  C19 UNL     1      -9.331  48.051 -26.654  1.00  0.00     0.128 C 
HETATM    4  C14 UNL     1      -9.108  47.362 -28.032  1.00  0.00     0.005 C 
HETATM    5  C13 UNL     1      -9.926  47.901 -29.213  1.00  0.00     0.091 C 
HETATM    6  C15 UNL     1      -9.339  45.830 -27.917  1.00  0.00     0.019 C 
HETATM    7  C16 UNL     1      -7.627  47.748 -28.282  1.00  0.00     0.002 C 
HETATM    8  C12 UNL     1      -9.373  47.316 -30.506  1.00  0.00     0.133 C 
HETATM    9  C11 UNL     1      -7.875  47.555 -30.785  1.00  0.00     0.072 C 
HETATM   10  O2  UNL     1     -10.118  46.709 -31.274  1.00  0.00    -0.297 OA
HETATM   11  C2  UNL     1      -7.335  46.971 -32.141  1.00  0.00    -0.009 C 
HETATM   12  C10 UNL     1      -7.037  47.112 -29.549  1.00  0.00     0.003 C 
HETATM   13  C1  UNL     1      -7.541  45.443 -32.258  1.00  0.00     0.021 C 
HETATM   14  C3  UNL     1      -8.060  47.692 -33.316  1.00  0.00     0.022 C 
HETATM   15  C7  UNL     1      -5.822  47.239 -32.231  1.00  0.00    -0.067 C 
HETATM   16  C4  UNL     1      -7.384  47.502 -34.667  1.00  0.00     0.084 C 
HETATM   17  C5  UNL     1      -5.947  47.941 -34.598  1.00  0.00     0.149 C 
HETATM   18  O1  UNL     1      -5.350  48.408 -35.565  1.00  0.00    -0.293 OA
HETATM   19  C6  UNL     1      -5.214  47.718 -33.332  1.00  0.00     0.053 C 
HETATM   20  C8  UNL     1      -4.994  46.905 -31.013  1.00  0.00     0.035 C 
HETATM   21  C9  UNL     1      -5.570  47.518 -29.744  1.00  0.00     0.010 C 
HETATM   22  C17 UNL     1      -6.948  47.461 -26.947  1.00  0.00     0.009 C 
HETATM   23  C18 UNL     1      -8.039  47.708 -25.883  1.00  0.00     0.047 C 
BRANCH   3  24
HETATM   24  O3  UNL     1      -9.339  49.481 -26.830  1.00  0.00    -0.381 OA
HETATM   25  H25 UNL     1     -10.245  49.722 -27.112  1.00  0.00     0.211 HD
ENDBRANCH   3  24
ENDBRANCH   1   3
BRANCH   1  26
HETATM   26  C21 UNL     1     -11.991  47.928 -26.771  1.00  0.00     0.260 C 
BRANCH  26  27
HETATM   27  O5  UNL     1     -12.798  46.780 -27.008  1.00  0.00    -0.314 OA
BRANCH  27  28
HETATM   28  C22 UNL     1     -13.860  46.635 -26.170  1.00  0.00     0.259 C 
HETATM   29  O6  UNL     1     -14.309  47.527 -25.465  1.00  0.00    -0.265 OA
BRANCH  28  30
HETATM   30  C23 UNL     1     -14.361  45.208 -26.130  1.00  0.00     0.120 C 
BRANCH  30  31
HETATM   31  C24 UNL     1     -14.747  44.705 -24.743  1.00  0.00     0.112 C 
BRANCH  31  32
HETATM   32  C25 UNL     1     -16.232  44.842 -24.478  1.00  0.00     0.218 C 
HETATM   33  O7  UNL     1     -16.986  43.887 -24.343  1.00  0.00    -0.274 OA
HETATM   34  N1  UNL     1     -16.654  46.147 -24.410  1.00  0.00    -0.346 N 
HETATM   35  H32 UNL     1     -15.976  46.902 -24.356  1.00  0.00     0.163 HD
BRANCH  34  36
HETATM   36  C26 UNL     1     -18.037  46.497 -24.048  1.00  0.00     0.186 C 
BRANCH  36  37
HETATM   37  C27 UNL     1     -18.512  45.704 -22.821  1.00  0.00     0.074 C 
BRANCH  37  38
HETATM   38  C28 UNL     1     -18.064  46.327 -21.520  1.00  0.00    -0.056 A 
HETATM   39  C29 UNL     1     -16.713  46.336 -21.151  1.00  0.00     0.007 A 
HETATM   40  C30 UNL     1     -16.316  46.901 -19.937  1.00  0.00     0.001 A 
HETATM   41  C31 UNL     1     -17.264  47.463 -19.083  1.00  0.00     0.000 A 
HETATM   42  C32 UNL     1     -18.610  47.454 -19.439  1.00  0.00     0.001 A 
HETATM   43  C33 UNL     1     -19.011  46.887 -20.650  1.00  0.00     0.007 A 
ENDBRANCH  37  38
ENDBRANCH  36  37
BRANCH  36  44
HETATM   44  C34 UNL     1     -18.956  46.210 -25.245  1.00  0.00     0.163 C 
HETATM   45  O8  UNL     1     -18.642  45.749 -26.329  1.00  0.00    -0.648 OA
BRANCH  44  46
HETATM   46  O9  UNL     1     -20.254  46.532 -25.013  1.00  0.00    -0.775 OA
HETATM   47  H41 UNL     1     -20.694  46.301 -25.860  1.00  0.00     0.167 HD
ENDBRANCH  44  46
ENDBRANCH  36  44
ENDBRANCH  34  36
ENDBRANCH  31  32
ENDBRANCH  30  31
ENDBRANCH  28  30
ENDBRANCH  27  28
ENDBRANCH  26  27
ENDBRANCH   1  26
TORSDOF 13
ENDMDL
