MODEL 1
REMARK minimizedAffinity -8.52643108
REMARK CNNscore 0.610120773
REMARK CNNaffinity 6.42708254
REMARK  8 active torsions:
REMARK  status: ('A' for Active; 'I' for Inactive)
REMARK    1  A    between atoms: C2_2  and  C30_34 
REMARK    2  A    between atoms: C3_3  and  C4_4 
REMARK    3  A    between atoms: C4_4  and  O1_5 
REMARK    4  A    between atoms: C4_4  and  C5_6 
REMARK    5  A    between atoms: C5_6  and  C6_7 
REMARK    6  A    between atoms: C6_7  and  C8_9 
REMARK    7  A    between atoms: C10_11  and  O2_12 
REMARK    8  A    between atoms: C30_34  and  O6_36 
ROOT
HETATM    1  C8  UNL     1      -3.047   6.172  13.484  1.00  0.00     0.001 C 
HETATM    2  C9  UNL     1      -4.083   5.701  14.545  1.00  0.00     0.038 C 
HETATM    3  C10 UNL     1      -4.281   6.875  15.525  1.00  0.00     0.131 C 
HETATM    4  C11 UNL     1      -3.744   8.114  14.758  1.00  0.00     0.014 C 
HETATM    5  C12 UNL     1      -4.847   8.594  13.759  1.00  0.00     0.023 C 
HETATM    6  C13 UNL     1      -3.345   9.372  15.528  1.00  0.00    -0.058 C 
HETATM    7  C14 UNL     1      -2.429  10.242  15.026  1.00  0.00    -0.000 C 
HETATM    8  C15 UNL     1      -1.704   9.873  13.736  1.00  0.00     0.157 C 
HETATM    9  O3  UNL     1      -0.946  10.672  13.186  1.00  0.00    -0.293 OA
HETATM   10  C16 UNL     1      -1.906   8.502  13.100  1.00  0.00     0.094 C 
HETATM   11  C17 UNL     1      -2.462   7.483  14.096  1.00  0.00    -0.019 C 
HETATM   12  C18 UNL     1      -1.339   7.155  15.122  1.00  0.00     0.017 C 
HETATM   13  C19 UNL     1      -2.075  11.589  15.706  1.00  0.00    -0.008 C 
HETATM   14  C20 UNL     1      -0.663  11.411  16.315  1.00  0.00     0.021 C 
HETATM   15  C21 UNL     1      -2.039  12.768  14.680  1.00  0.00     0.022 C 
HETATM   16  C22 UNL     1      -2.401  14.146  15.229  1.00  0.00     0.080 C 
HETATM   17  C23 UNL     1      -2.133  14.259  16.709  1.00  0.00     0.135 C 
HETATM   18  O4  UNL     1      -1.421  15.157  17.156  1.00  0.00    -0.297 OA
HETATM   19  C24 UNL     1      -2.863  13.259  17.611  1.00  0.00     0.018 C 
HETATM   20  C25 UNL     1      -2.049  13.026  18.898  1.00  0.00     0.023 C 
HETATM   21  C26 UNL     1      -4.192  13.930  18.022  1.00  0.00     0.023 C 
HETATM   22  C27 UNL     1      -3.160  11.957  16.790  1.00  0.00     0.014 C 
HETATM   23  C28 UNL     1      -3.501  10.748  17.667  1.00  0.00     0.011 C 
HETATM   24  C29 UNL     1      -4.080   9.618  16.823  1.00  0.00     0.036 C 
ENDROOT
BRANCH   1  25
HETATM   25  C6  UNL     1      -2.163   5.018  12.922  1.00  0.00    -0.011 C 
HETATM   26  C7  UNL     1      -0.685   5.338  12.670  1.00  0.00     0.010 C 
BRANCH  25  27
HETATM   27  C5  UNL     1      -2.802   4.375  11.669  1.00  0.00     0.040 C 
BRANCH  27  28
HETATM   28  C4  UNL     1      -3.611   3.090  11.924  1.00  0.00     0.142 C 
BRANCH  28  29
HETATM   29  C3  UNL     1      -5.056   3.364  12.210  1.00  0.00     0.018 C 
HETATM   30  C2  UNL     1      -6.118   2.564  11.983  1.00  0.00     0.010 C 
HETATM   31  C1  UNL     1      -6.089   1.199  11.368  1.00  0.00     0.055 C 
BRANCH  30  32
HETATM   32  C30 UNL     1      -7.441   3.105  12.391  1.00  0.00     0.171 C 
HETATM   33  O5  UNL     1      -8.396   2.469  12.801  1.00  0.00    -0.646 OA
BRANCH  32  34
HETATM   34  O6  UNL     1      -7.514   4.438  12.246  1.00  0.00    -0.773 OA
HETATM   35  H44 UNL     1      -8.419   4.650  12.556  1.00  0.00     0.167 HD
ENDBRANCH  32  34
ENDBRANCH  30  32
ENDBRANCH  28  29
BRANCH  28  36
HETATM   36  O1  UNL     1      -3.593   2.303  10.736  1.00  0.00    -0.392 OA
HETATM   37  H6  UNL     1      -2.665   2.095  10.534  1.00  0.00     0.210 HD
ENDBRANCH  28  36
ENDBRANCH  27  28
ENDBRANCH  25  27
ENDBRANCH   1  25
BRANCH   3  38
HETATM   38  O2  UNL     1      -5.644   6.993  15.901  1.00  0.00    -0.394 OA
HETATM   39  H17 UNL     1      -5.922   6.139  16.276  1.00  0.00     0.210 HD
ENDBRANCH   3  38
TORSDOF 8
ENDMDL
