MODEL 1
REMARK minimizedAffinity -10.0996647
REMARK  7 active torsions:
REMARK  status: ('A' for Active; 'I' for Inactive)
REMARK    1  A    between atoms: C19_20  and  O2_21 
REMARK    2  A    between atoms: O2_21  and  C20_22 
REMARK    3  A    between atoms: C20_22  and  C21_24 
REMARK    4  A    between atoms: C21_24  and  C22_25 
REMARK    5  A    between atoms: C22_25  and  C23_26 
REMARK       I    between atoms: C23_26  and  N1_28 
REMARK    6  A    between atoms: N1_28  and  C24_29 
REMARK    7  A    between atoms: C24_29  and  C25_30 
ROOT
HETATM    1  C1  UNL     1      -2.209  52.098 -23.581  1.00  0.00     0.018 C 
HETATM    2  C2  UNL     1      -0.826  51.401 -23.514  1.00  0.00    -0.013 C 
HETATM    3  C3  UNL     1      -0.973  50.042 -22.816  1.00  0.00     0.012 C 
HETATM    4  C4  UNL     1      -1.294  50.200 -21.318  1.00  0.00     0.007 C 
HETATM    5  C5  UNL     1      -0.305  51.128 -20.564  1.00  0.00     0.002 C 
HETATM    6  C6  UNL     1      -0.111  52.488 -21.306  1.00  0.00    -0.004 C 
HETATM    7  C7  UNL     1       0.970  53.322 -20.607  1.00  0.00     0.010 C 
HETATM    8  C8  UNL     1       0.615  53.571 -19.147  1.00  0.00     0.035 C 
HETATM    9  C9  UNL     1       0.361  52.284 -18.400  1.00  0.00    -0.068 C 
HETATM   10  C10 UNL     1       0.987  52.061 -17.230  1.00  0.00     0.053 C 
HETATM   11  C11 UNL     1       0.690  50.874 -16.398  1.00  0.00     0.149 C 
HETATM   12  O1  UNL     1       1.317  50.694 -15.357  1.00  0.00    -0.293 OA
HETATM   13  C12 UNL     1      -0.438  49.974 -16.827  1.00  0.00     0.084 C 
HETATM   14  C13 UNL     1      -0.522  49.909 -18.344  1.00  0.00     0.022 C 
HETATM   15  C14 UNL     1      -0.636  51.303 -19.032  1.00  0.00    -0.016 C 
HETATM   16  C15 UNL     1      -2.062  51.857 -18.807  1.00  0.00     0.020 C 
HETATM   17  C16 UNL     1       0.259  52.201 -22.764  1.00  0.00     0.001 C 
HETATM   18  C17 UNL     1       0.547  53.374 -23.696  1.00  0.00     0.008 C 
HETATM   19  C18 UNL     1       0.390  52.777 -25.105  1.00  0.00     0.034 C 
HETATM   20  C19 UNL     1      -0.180  51.353 -24.918  1.00  0.00     0.140 C 
ENDROOT
BRANCH  20  21
HETATM   21  O2  UNL     1      -1.110  51.085 -25.971  1.00  0.00    -0.315 OA
BRANCH  21  22
HETATM   22  C20 UNL     1      -1.629  52.168 -26.607  1.00  0.00     0.259 C 
HETATM   23  O3  UNL     1      -1.043  53.228 -26.789  1.00  0.00    -0.265 OA
BRANCH  22  24
HETATM   24  C21 UNL     1      -3.002  51.877 -27.167  1.00  0.00     0.120 C 
BRANCH  24  25
HETATM   25  C22 UNL     1      -3.055  50.688 -28.121  1.00  0.00     0.112 C 
BRANCH  25  26
HETATM   26  C23 UNL     1      -3.654  49.458 -27.469  1.00  0.00     0.218 C 
HETATM   27  O4  UNL     1      -3.862  48.410 -28.067  1.00  0.00    -0.274 OA
HETATM   28  N1  UNL     1      -3.936  49.642 -26.133  1.00  0.00    -0.357 N 
HETATM   29  H32 UNL     1      -3.595  50.475 -25.673  1.00  0.00     0.162 HD
BRANCH  28  30
HETATM   30  C24 UNL     1      -4.403  48.555 -25.300  1.00  0.00     0.162 C 
BRANCH  30  31
HETATM   31  C25 UNL     1      -5.453  49.027 -24.339  1.00  0.00    -0.025 A 
HETATM   32  C26 UNL     1      -6.416  48.153 -23.825  1.00  0.00     0.011 A 
HETATM   33  C27 UNL     1      -7.362  48.620 -22.917  1.00  0.00     0.018 A 
HETATM   34  C28 UNL     1      -7.310  49.953 -22.546  1.00  0.00     0.087 A 
HETATM   35  N2  UNL     1      -6.395  50.829 -23.017  1.00  0.00    -0.375 N 
HETATM   36  C29 UNL     1      -5.491  50.346 -23.899  1.00  0.00     0.096 A 
ATOM     37  H2  UNL     1      -6.386  51.804 -22.721  1.00  0.00     0.164 HD
ENDBRANCH  30  31
ENDBRANCH  28  30
ENDBRANCH  25  26
ENDBRANCH  24  25
ENDBRANCH  22  24
ENDBRANCH  21  22
ENDBRANCH  20  21
TORSDOF 7
ENDMDL
