MODEL 1
REMARK minimizedAffinity -8.61283493
REMARK CNNscore 0.511943221
REMARK CNNaffinity 6.4524703
REMARK  14 active torsions:
REMARK  status: ('A' for Active; 'I' for Inactive)
REMARK    1  A    between atoms: O1_2  and  C2_3 
REMARK    2  A    between atoms: C2_3  and  C3_5 
REMARK    3  A    between atoms: C3_5  and  C4_6 
REMARK    4  A    between atoms: C3_5  and  N2_16 
REMARK    5  A    between atoms: C4_6  and  C5_7 
REMARK       I    between atoms: N2_16  and  C13_17 
REMARK    6  A    between atoms: C13_17  and  C14_19 
REMARK    7  A    between atoms: C14_19  and  C15_20 
REMARK    8  A    between atoms: C15_20  and  C16_21 
REMARK    9  A    between atoms: C16_21  and  O5_23 
REMARK   10  A    between atoms: O5_23  and  C17_24 
REMARK   11  A    between atoms: C17_24  and  C18_25 
REMARK   12  A    between atoms: C18_25  and  C19_27 
REMARK   13  A    between atoms: C19_27  and  O7_28 
REMARK   14  A    between atoms: C34_44  and  O9_45 
ROOT
HETATM    1  C17 UNL     1      -8.849  46.373 -26.671  1.00  0.00     0.260 C 
ENDROOT
BRANCH   1   2
HETATM    2  O5  UNL     1      -8.726  47.797 -26.601  1.00  0.00    -0.314 OA
BRANCH   2   3
HETATM    3  C16 UNL     1      -8.062  48.254 -25.507  1.00  0.00     0.259 C 
HETATM    4  O4  UNL     1      -8.546  48.986 -24.654  1.00  0.00    -0.265 OA
BRANCH   3   5
HETATM    5  C15 UNL     1      -6.658  47.709 -25.488  1.00  0.00     0.120 C 
BRANCH   5   6
HETATM    6  C14 UNL     1      -5.891  48.214 -24.271  1.00  0.00     0.112 C 
BRANCH   6   7
HETATM    7  C13 UNL     1      -4.515  48.719 -24.649  1.00  0.00     0.218 C 
HETATM    8  N2  UNL     1      -4.044  49.691 -23.794  1.00  0.00    -0.347 N 
HETATM    9  H13 UNL     1      -4.471  49.743 -22.875  1.00  0.00     0.163 HD
HETATM   10  O3  UNL     1      -3.880  48.306 -25.611  1.00  0.00    -0.274 OA
BRANCH   8  11
HETATM   11  C3  UNL     1      -2.653  50.160 -23.893  1.00  0.00     0.188 C 
BRANCH  11  12
HETATM   12  C2  UNL     1      -2.088  50.262 -22.474  1.00  0.00     0.281 C 
HETATM   13  O2  UNL     1      -2.187  51.255 -21.762  1.00  0.00    -0.263 OA
BRANCH  12  14
HETATM   14  O1  UNL     1      -1.411  49.126 -22.142  1.00  0.00    -0.325 OA
HETATM   15  C1  UNL     1      -2.053  48.339 -21.139  1.00  0.00     0.213 C 
ENDBRANCH  12  14
ENDBRANCH  11  12
BRANCH  11  16
HETATM   16  C4  UNL     1      -2.554  51.548 -24.536  1.00  0.00     0.076 C 
BRANCH  16  17
HETATM   17  C5  UNL     1      -1.964  51.590 -25.917  1.00  0.00    -0.028 A 
HETATM   18  C6  UNL     1      -2.622  51.577 -27.134  1.00  0.00     0.096 A 
HETATM   19  N1  UNL     1      -1.688  51.626 -28.135  1.00  0.00    -0.365 N 
HETATM   20  C7  UNL     1      -0.421  51.663 -27.604  1.00  0.00     0.042 A 
HETATM   21  H8  UNL     1      -1.896  51.632 -29.124  1.00  0.00     0.165 HD
HETATM   22  C8  UNL     1       0.823  51.714 -28.244  1.00  0.00     0.030 A 
HETATM   23  C12 UNL     1      -0.559  51.636 -26.216  1.00  0.00    -0.002 A 
HETATM   24  C9  UNL     1       1.966  51.736 -27.436  1.00  0.00     0.002 A 
HETATM   25  C10 UNL     1       1.863  51.706 -26.047  1.00  0.00     0.001 A 
HETATM   26  C11 UNL     1       0.610  51.656 -25.425  1.00  0.00     0.014 A 
ENDBRANCH  16  17
ENDBRANCH  11  16
ENDBRANCH   8  11
ENDBRANCH   6   7
ENDBRANCH   5   6
ENDBRANCH   3   5
ENDBRANCH   2   3
ENDBRANCH   1   2
BRANCH   1  27
HETATM   27  C18 UNL     1      -9.366  45.950 -28.044  1.00  0.00     0.185 C 
HETATM   28  O6  UNL     1      -8.621  45.449 -28.889  1.00  0.00    -0.292 OA
BRANCH  27  29
HETATM   29  C19 UNL     1     -10.868  46.198 -28.328  1.00  0.00     0.128 C 
HETATM   30  C20 UNL     1     -11.303  45.636 -29.715  1.00  0.00     0.047 C 
HETATM   31  C21 UNL     1     -12.718  45.054 -29.537  1.00  0.00     0.009 C 
HETATM   32  C22 UNL     1     -13.150  45.536 -28.159  1.00  0.00     0.002 C 
HETATM   33  C23 UNL     1     -14.341  44.840 -27.482  1.00  0.00    -0.002 C 
HETATM   34  C36 UNL     1     -11.844  45.490 -27.328  1.00  0.00     0.001 C 
HETATM   35  C24 UNL     1     -15.574  44.856 -28.404  1.00  0.00     0.010 C 
HETATM   36  C33 UNL     1     -14.641  45.564 -26.124  1.00  0.00     0.035 C 
HETATM   37  C25 UNL     1     -16.815  44.289 -27.724  1.00  0.00     0.036 C 
HETATM   38  C26 UNL     1     -17.069  45.012 -26.426  1.00  0.00    -0.064 A 
HETATM   39  C27 UNL     1     -18.226  45.669 -26.229  1.00  0.00     0.058 A 
HETATM   40  C31 UNL     1     -15.920  44.978 -25.406  1.00  0.00     0.004 A 
HETATM   41  C28 UNL     1     -18.487  46.438 -24.994  1.00  0.00     0.172 A 
HETATM   42  O8  UNL     1     -19.545  47.028 -24.822  1.00  0.00    -0.289 OA
HETATM   43  C29 UNL     1     -17.415  46.469 -23.981  1.00  0.00     0.052 A 
HETATM   44  C30 UNL     1     -16.263  45.812 -24.176  1.00  0.00    -0.009 A 
HETATM   45  C32 UNL     1     -15.758  43.523 -24.914  1.00  0.00     0.025 C 
HETATM   46  C34 UNL     1     -13.363  45.690 -25.243  1.00  0.00     0.124 C 
HETATM   47  C35 UNL     1     -12.131  46.233 -26.005  1.00  0.00     0.045 C 
HETATM   48  C37 UNL     1     -11.348  44.046 -27.049  1.00  0.00     0.019 C 
BRANCH  29  49
HETATM   49  O7  UNL     1     -11.119  47.608 -28.332  1.00  0.00    -0.381 OA
HETATM   50  H20 UNL     1     -10.724  47.990 -29.139  1.00  0.00     0.211 HD
ENDBRANCH  29  49
BRANCH  46  51
HETATM   51  O9  UNL     1     -13.031  44.446 -24.642  1.00  0.00    -0.395 OA
HETATM   52  H39 UNL     1     -12.284  44.593 -24.035  1.00  0.00     0.210 HD
ENDBRANCH  46  51
ENDBRANCH  27  29
ENDBRANCH   1  27
TORSDOF 14
ENDMDL
