MODEL 1
REMARK minimizedAffinity -9.24442768
REMARK  4 active torsions:
REMARK  status: ('A' for Active; 'I' for Inactive)
REMARK    1  A    between atoms: C2_2  and  C4_4 
REMARK    2  A    between atoms: C4_4  and  O1_5 
REMARK    3  A    between atoms: C8_10  and  O2_11 
REMARK    4  A    between atoms: C21_27  and  O6_28 
ROOT
HETATM    1  C4  UNL     1       1.495   6.881  10.756  1.00  0.00     0.106 C 
HETATM    2  C5  UNL     1       0.636   8.101  11.169  1.00  0.00     0.126 C 
HETATM    3 CL1  UNL     1       1.490   9.209  12.305  1.00  0.00    -0.121 Cl
HETATM    4  C6  UNL     1      -0.803   7.711  11.657  1.00  0.00     0.041 C 
HETATM    5  C7  UNL     1      -1.543   9.042  11.947  1.00  0.00     0.015 C 
HETATM    6  C8  UNL     1      -0.806   6.639  12.824  1.00  0.00     0.107 C 
HETATM    7  C9  UNL     1       0.210   5.510  12.472  1.00  0.00     0.148 A 
HETATM    8  O3  UNL     1       0.338   4.486  13.480  1.00  0.00    -0.363 OA
HETATM    9  C10 UNL     1      -0.244   4.076  12.239  1.00  0.00     0.164 A 
HETATM   10  C11 UNL     1      -1.664   3.654  12.346  1.00  0.00     0.045 C 
HETATM   11  C12 UNL     1      -2.610   4.846  12.189  1.00  0.00     0.031 C 
HETATM   12  C13 UNL     1      -4.054   4.424  12.270  1.00  0.00    -0.038 A 
HETATM   13  C14 UNL     1      -4.997   5.134  12.884  1.00  0.00     0.022 A 
HETATM   14  C15 UNL     1      -4.811   6.445  13.545  1.00  0.00     0.046 C 
HETATM   15  C16 UNL     1      -3.438   7.028  13.153  1.00  0.00     0.018 C 
HETATM   16  C17 UNL     1      -2.254   6.004  13.206  1.00  0.00    -0.002 C 
HETATM   17  C18 UNL     1      -2.233   5.485  14.686  1.00  0.00     0.019 C 
HETATM   18  C19 UNL     1      -6.263   4.427  12.712  1.00  0.00     0.289 A 
HETATM   19  O4  UNL     1      -7.342   4.789  13.143  1.00  0.00    -0.260 OA
HETATM   20  O5  UNL     1      -6.033   3.301  11.981  1.00  0.00    -0.313 OA
HETATM   21  C20 UNL     1      -4.642   3.220  11.652  1.00  0.00     0.214 A 
HETATM   22  C21 UNL     1       1.573   5.885  11.934  1.00  0.00     0.194 C 
ENDROOT
BRANCH   1  23
HETATM   23  C2  UNL     1       2.931   7.263  10.230  1.00  0.00     0.016 C 
HETATM   24  C1  UNL     1       2.919   8.019   8.891  1.00  0.00     0.012 C 
HETATM   25  C3  UNL     1       3.851   6.041  10.066  1.00  0.00     0.012 C 
ENDBRANCH   1  23
BRANCH   1  26
HETATM   26  O1  UNL     1       0.794   6.190   9.689  1.00  0.00    -0.385 OA
HETATM   27  H8  UNL     1       0.783   6.766   8.904  1.00  0.00     0.210 HD
ENDBRANCH   1  26
BRANCH  22  28
HETATM   28  O6  UNL     1       2.385   6.332  13.016  1.00  0.00    -0.389 OA
HETATM   29  H29 UNL     1       2.459   5.576  13.628  1.00  0.00     0.210 HD
ENDBRANCH  22  28
BRANCH   6  30
HETATM   30  O2  UNL     1      -0.345   7.326  13.997  1.00  0.00    -0.385 OA
HETATM   31  H14 UNL     1       0.438   6.846  14.342  1.00  0.00     0.210 HD
ENDBRANCH   6  30
TORSDOF 4
ENDMDL
