MODEL 1
REMARK minimizedAffinity -9.95312119
REMARK  6 active torsions:
REMARK  status: ('A' for Active; 'I' for Inactive)
REMARK    1  A    between atoms: C2_2  and  C3_3 
REMARK    2  A    between atoms: C2_2  and  C27_30 
REMARK    3  A    between atoms: C3_3  and  C4_4 
REMARK    4  A    between atoms: C4_4  and  C5_5 
REMARK    5  A    between atoms: C5_5  and  C7_7 
REMARK    6  A    between atoms: C26_28  and  O3_29 
ROOT
HETATM    1  C7  UNL     1       1.014   6.563  11.558  1.00  0.00    -0.002 C 
HETATM    2  C8  UNL     1       1.232   5.055  11.283  1.00  0.00     0.006 C 
HETATM    3  C9  UNL     1      -0.130   4.373  11.527  1.00  0.00     0.010 C 
HETATM    4  C10 UNL     1      -1.107   5.530  11.760  1.00  0.00     0.027 C 
HETATM    5  C11 UNL     1      -2.443   5.319  12.428  1.00  0.00    -0.036 C 
HETATM    6  C12 UNL     1      -3.083   6.342  13.051  1.00  0.00     0.002 C 
HETATM    7  C13 UNL     1      -2.387   7.693  13.132  1.00  0.00     0.157 C 
HETATM    8  O1  UNL     1      -2.925   8.648  13.691  1.00  0.00    -0.293 OA
HETATM    9  C14 UNL     1      -1.015   7.879  12.501  1.00  0.00     0.093 C 
HETATM   10  C15 UNL     1      -0.232   6.568  12.492  1.00  0.00    -0.026 C 
HETATM   11  C16 UNL     1       0.128   6.168  13.945  1.00  0.00     0.016 C 
HETATM   12  C17 UNL     1      -4.481   6.198  13.690  1.00  0.00    -0.008 C 
HETATM   13  C18 UNL     1      -4.251   6.136  15.224  1.00  0.00     0.021 C 
HETATM   14  C19 UNL     1      -5.421   7.404  13.363  1.00  0.00     0.022 C 
HETATM   15  C20 UNL     1      -6.913   7.086  13.270  1.00  0.00     0.080 C 
HETATM   16  C21 UNL     1      -7.299   5.911  14.130  1.00  0.00     0.131 C 
HETATM   17  O2  UNL     1      -8.241   5.971  14.920  1.00  0.00    -0.298 OA
HETATM   18  C22 UNL     1      -6.524   4.619  13.917  1.00  0.00     0.056 C 
HETATM   19  C23 UNL     1      -7.429   3.633  13.178  1.00  0.00     0.018 C 
HETATM   20  C24 UNL     1      -5.203   4.906  13.159  1.00  0.00     0.012 C 
HETATM   21  C25 UNL     1      -4.262   3.694  13.176  1.00  0.00     0.042 C 
HETATM   22  C26 UNL     1      -3.044   3.946  12.289  1.00  0.00     0.148 C 
ENDROOT
BRANCH   1  23
HETATM   23  C5  UNL     1       2.236   7.400  12.030  1.00  0.00    -0.014 C 
HETATM   24  C6  UNL     1       2.520   7.371  13.530  1.00  0.00     0.010 C 
BRANCH  23  25
HETATM   25  C4  UNL     1       3.505   7.099  11.189  1.00  0.00     0.009 C 
BRANCH  25  26
HETATM   26  C3  UNL     1       3.639   7.763   9.810  1.00  0.00     0.034 C 
BRANCH  26  27
HETATM   27  C2  UNL     1       2.937   7.098   8.641  1.00  0.00    -0.086 C 
HETATM   28  C1  UNL     1       3.055   5.770   8.454  1.00  0.00     0.014 C 
BRANCH  27  29
HETATM   29  C27 UNL     1       2.007   7.899   7.729  1.00  0.00     0.005 C 
HETATM   30  C28 UNL     1       1.718   7.224   6.387  1.00  0.00     0.014 C 
HETATM   31  C29 UNL     1       0.706   8.301   8.427  1.00  0.00     0.014 C 
ENDBRANCH  27  29
ENDBRANCH  26  27
ENDBRANCH  25  26
ENDBRANCH  23  25
ENDBRANCH   1  23
BRANCH  22  32
HETATM   32  O3  UNL     1      -3.417   3.804  10.922  1.00  0.00    -0.391 OA
HETATM   33  H37 UNL     1      -3.618   2.865  10.771  1.00  0.00     0.210 HD
ENDBRANCH  22  32
TORSDOF 6
ENDMDL
