MODEL 1
REMARK minimizedAffinity -8.46305656
REMARK CNNscore 0.855739057
REMARK CNNaffinity 7.34249163
REMARK  11 active torsions:
REMARK  status: ('A' for Active; 'I' for Inactive)
REMARK    1  A    between atoms: C2_2  and  O2_4 
REMARK    2  A    between atoms: O2_4  and  C3_5 
REMARK    3  A    between atoms: C4_6  and  O3_7 
REMARK    4  A    between atoms: O3_7  and  C5_8 
REMARK    5  A    between atoms: C15_18  and  C16_19 
REMARK    6  A    between atoms: C20_23  and  C21_24 
REMARK    7  A    between atoms: C21_24  and  O4_27 
REMARK    8  A    between atoms: C24_29  and  O6_30 
REMARK    9  A    between atoms: C30_36  and  O7_37 
REMARK   10  A    between atoms: C36_44  and  O9_45 
REMARK   11  A    between atoms: C37_46  and  O10_47 
ROOT
HETATM    1  C5  UNL     1       6.337  56.917  -5.155  1.00  0.00     0.133 C 
HETATM    2  C6  UNL     1       4.857  57.277  -4.991  1.00  0.00     0.034 C 
HETATM    3  C7  UNL     1       4.283  57.796  -6.299  1.00  0.00     0.013 C 
HETATM    4  C8  UNL     1       4.447  56.794  -7.430  1.00  0.00    -0.025 A 
HETATM    5  C9  UNL     1       3.667  57.157  -8.672  1.00  0.00     0.021 A 
HETATM    6  C10 UNL     1       3.290  55.893  -7.912  1.00  0.00    -0.027 A 
HETATM    7  C11 UNL     1       1.943  55.915  -7.204  1.00  0.00     0.011 C 
HETATM    8  C12 UNL     1       0.792  55.290  -8.016  1.00  0.00     0.011 C 
HETATM    9  C13 UNL     1       1.246  54.434  -9.212  1.00  0.00    -0.028 C 
HETATM   10  C14 UNL     1       1.546  55.363 -10.427  1.00  0.00     0.016 C 
HETATM   11  C15 UNL     1       0.248  53.297  -9.642  1.00  0.00     0.057 C 
HETATM   12  C24 UNL     1       1.171  52.298 -10.405  1.00  0.00     0.126 C 
HETATM   13  C25 UNL     1       2.635  52.667 -10.029  1.00  0.00     0.042 C 
HETATM   14  C26 UNL     1       2.509  53.585  -8.796  1.00  0.00    -0.029 C 
HETATM   15  C27 UNL     1       2.261  52.626  -7.570  1.00  0.00     0.016 C 
HETATM   16  C28 UNL     1       3.724  54.490  -8.379  1.00  0.00     0.006 C 
HETATM   17  C29 UNL     1       4.910  54.509  -9.340  1.00  0.00     0.038 C 
HETATM   18  C30 UNL     1       6.074  55.431  -8.912  1.00  0.00     0.124 C 
HETATM   19  C31 UNL     1       5.911  56.308  -7.623  1.00  0.00     0.034 C 
HETATM   20  C32 UNL     1       6.562  55.819  -6.258  1.00  0.00    -0.015 C 
HETATM   21  C33 UNL     1       8.093  55.604  -6.388  1.00  0.00     0.018 C 
HETATM   22  C34 UNL     1       5.983  54.482  -5.755  1.00  0.00     0.018 C 
ENDROOT
BRANCH   1  23
HETATM   23  O3  UNL     1       7.013  58.133  -5.521  1.00  0.00    -0.352 OA
BRANCH  23  24
HETATM   24  C4  UNL     1       7.719  58.760  -4.451  1.00  0.00     0.292 C 
HETATM   25  C3  UNL     1       8.803  59.674  -5.067  1.00  0.00     0.218 C 
HETATM   26  C37 UNL     1       9.243  60.679  -4.005  1.00  0.00     0.183 C 
HETATM   27  C36 UNL     1       8.049  61.541  -3.560  1.00  0.00     0.173 C 
HETATM   28  C35 UNL     1       6.709  60.831  -3.809  1.00  0.00     0.205 C 
HETATM   29  O8  UNL     1       6.816  59.434  -3.561  1.00  0.00    -0.356 OA
BRANCH  25  30
HETATM   30  O2  UNL     1       9.926  58.854  -5.465  1.00  0.00    -0.309 OA
BRANCH  30  31
HETATM   31  C2  UNL     1      10.488  58.088  -4.490  1.00  0.00     0.255 C 
HETATM   32  C1  UNL     1      11.944  58.409  -4.355  1.00  0.00     0.126 C 
HETATM   33  O1  UNL     1       9.921  57.230  -3.830  1.00  0.00    -0.266 OA
ENDBRANCH  30  31
ENDBRANCH  25  30
BRANCH  26  34
HETATM   34  O10 UNL     1      10.283  61.538  -4.501  1.00  0.00    -0.390 OA
HETATM   35  H60 UNL     1      10.600  62.049  -3.731  1.00  0.00     0.210 HD
ENDBRANCH  26  34
BRANCH  27  36
HETATM   36  O9  UNL     1       8.247  61.840  -2.170  1.00  0.00    -0.391 OA
HETATM   37  H58 UNL     1       7.410  62.180  -1.810  1.00  0.00     0.210 HD
ENDBRANCH  27  36
ENDBRANCH  23  24
ENDBRANCH   1  23
BRANCH  18  38
HETATM   38  O7  UNL     1       7.296  54.701  -8.951  1.00  0.00    -0.395 OA
HETATM   39  H47 UNL     1       7.144  53.826  -8.553  1.00  0.00     0.210 HD
ENDBRANCH  18  38
BRANCH  11  40
HETATM   40  C16 UNL     1      -1.160  53.603 -10.229  1.00  0.00     0.065 C 
HETATM   41  C17 UNL     1      -1.529  55.073 -10.431  1.00  0.00     0.046 C 
HETATM   42  C18 UNL     1      -1.404  52.835 -11.538  1.00  0.00     0.041 C 
HETATM   43  C19 UNL     1      -2.859  52.444 -11.461  1.00  0.00     0.038 C 
HETATM   44  C20 UNL     1      -3.090  52.229  -9.972  1.00  0.00     0.156 C 
HETATM   45  O5  UNL     1      -2.139  53.075  -9.292  1.00  0.00    -0.372 OA
BRANCH  44  46
HETATM   46  C21 UNL     1      -2.954  50.751  -9.494  1.00  0.00     0.076 C 
HETATM   47  C22 UNL     1      -2.117  50.670  -8.213  1.00  0.00     0.048 C 
HETATM   48  C23 UNL     1      -2.311  49.878 -10.580  1.00  0.00     0.048 C 
BRANCH  46  49
HETATM   49  O4  UNL     1      -4.246  50.199  -9.200  1.00  0.00    -0.388 OA
HETATM   50  H35 UNL     1      -4.131  49.247  -9.036  1.00  0.00     0.210 HD
ENDBRANCH  46  49
ENDBRANCH  44  46
ENDBRANCH  11  40
BRANCH  12  51
HETATM   51  O6  UNL     1       1.036  52.357 -11.811  1.00  0.00    -0.395 OA
HETATM   52  H37 UNL     1       0.399  51.674 -12.075  1.00  0.00     0.210 HD
ENDBRANCH  12  51
TORSDOF 11
ENDMDL
