MODEL 1
REMARK minimizedAffinity -7.85031271
REMARK CNNscore 0.584287107
REMARK CNNaffinity 6.730021
REMARK  19 active torsions:
REMARK  status: ('A' for Active; 'I' for Inactive)
REMARK    1  A    between atoms: C2_2  and  C3_3 
REMARK    2  A    between atoms: C3_3  and  C5_5 
REMARK    3  A    between atoms: C5_5  and  N1_6 
REMARK    4  A    between atoms: C5_5  and  C37_46 
REMARK       I    between atoms: N1_6  and  C6_7 
REMARK    5  A    between atoms: C6_7  and  C7_9 
REMARK    6  A    between atoms: C7_9  and  C8_10 
REMARK    7  A    between atoms: C8_10  and  C9_11 
REMARK    8  A    between atoms: C9_11  and  C10_12 
REMARK    9  A    between atoms: C10_12  and  C11_13 
REMARK   10  A    between atoms: C11_13  and  N2_14 
REMARK       I    between atoms: N2_14  and  C12_15 
REMARK   11  A    between atoms: C12_15  and  C13_17 
REMARK   12  A    between atoms: C13_17  and  C14_18 
REMARK   13  A    between atoms: C14_18  and  C15_19 
REMARK   14  A    between atoms: C15_19  and  O4_21 
REMARK   15  A    between atoms: O4_21  and  C16_22 
REMARK   16  A    between atoms: C16_22  and  C17_23 
REMARK   17  A    between atoms: C17_23  and  C18_25 
REMARK   18  A    between atoms: C18_25  and  O6_26 
REMARK   19  A    between atoms: C37_46  and  O9_48 
ROOT
HETATM    1  C15 UNL     1       1.393   8.029  11.190  1.00  0.00     0.259 C 
HETATM    2  O3  UNL     1       0.453   7.945  10.411  1.00  0.00    -0.265 OA
ENDROOT
BRANCH   1   3
HETATM    3  C14 UNL     1       2.675   7.245  11.038  1.00  0.00     0.120 C 
BRANCH   3   4
HETATM    4  C13 UNL     1       3.932   8.083  11.220  1.00  0.00     0.112 C 
BRANCH   4   5
HETATM    5  C12 UNL     1       5.069   7.234  11.741  1.00  0.00     0.217 C 
HETATM    6  N2  UNL     1       5.574   7.647  12.955  1.00  0.00    -0.361 N 
HETATM    7  H22 UNL     1       5.382   8.596  13.241  1.00  0.00     0.162 HD
HETATM    8  O2  UNL     1       5.445   6.231  11.145  1.00  0.00    -0.274 OA
BRANCH   6   9
HETATM    9  C11 UNL     1       6.740   6.990  13.512  1.00  0.00     0.122 C 
BRANCH   9  10
HETATM   10  C10 UNL     1       8.000   7.851  13.454  1.00  0.00     0.020 C 
BRANCH  10  11
HETATM   11  C9  UNL     1       8.764   7.955  14.780  1.00  0.00     0.002 C 
BRANCH  11  12
HETATM   12  C8  UNL     1       8.300   9.096  15.691  1.00  0.00     0.009 C 
BRANCH  12  13
HETATM   13  C7  UNL     1       9.126   9.168  16.979  1.00  0.00     0.103 C 
BRANCH  13  14
HETATM   14  C6  UNL     1       9.737  10.539  17.214  1.00  0.00     0.218 C 
HETATM   15  N1  UNL     1      11.030  10.477  17.690  1.00  0.00    -0.346 N 
HETATM   16  H11 UNL     1      11.284   9.617  18.162  1.00  0.00     0.163 HD
HETATM   17  O1  UNL     1       9.137  11.590  17.021  1.00  0.00    -0.274 OA
BRANCH  15  18
HETATM   18  C5  UNL     1      11.699  11.685  18.185  1.00  0.00     0.186 C 
BRANCH  18  19
HETATM   19  C3  UNL     1      13.165  11.776  17.692  1.00  0.00     0.014 C 
HETATM   20  C4  UNL     1      13.291  11.553  16.178  1.00  0.00     0.012 C 
BRANCH  19  21
HETATM   21  C2  UNL     1      13.786  13.123  18.122  1.00  0.00     0.002 C 
HETATM   22  C1  UNL     1      14.901  12.980  19.148  1.00  0.00     0.005 C 
ENDBRANCH  19  21
ENDBRANCH  18  19
BRANCH  18  23
HETATM   23  C37 UNL     1      11.647  11.760  19.718  1.00  0.00     0.163 C 
HETATM   24  O8  UNL     1      11.279  12.716  20.382  1.00  0.00    -0.648 OA
BRANCH  23  25
HETATM   25  O9  UNL     1      12.128  10.659  20.339  1.00  0.00    -0.775 OA
HETATM   26  H56 UNL     1      12.031  10.876  21.292  1.00  0.00     0.167 HD
ENDBRANCH  23  25
ENDBRANCH  18  23
ENDBRANCH  15  18
ENDBRANCH  13  14
ENDBRANCH  12  13
ENDBRANCH  11  12
ENDBRANCH  10  11
ENDBRANCH   9  10
ENDBRANCH   6   9
ENDBRANCH   4   5
ENDBRANCH   3   4
ENDBRANCH   1   3
BRANCH   1  27
HETATM   27  O4  UNL     1       1.393   8.775  12.331  1.00  0.00    -0.314 OA
BRANCH  27  28
HETATM   28  C16 UNL     1       0.800   8.113  13.449  1.00  0.00     0.260 C 
BRANCH  28  29
HETATM   29  C17 UNL     1      -0.621   8.598  13.718  1.00  0.00     0.185 C 
HETATM   30  O5  UNL     1      -0.800   9.678  14.288  1.00  0.00    -0.292 OA
BRANCH  29  31
HETATM   31  C18 UNL     1      -1.799   7.760  13.141  1.00  0.00     0.128 C 
HETATM   32  C19 UNL     1      -1.378   6.284  12.905  1.00  0.00     0.047 C 
HETATM   33  C20 UNL     1      -2.632   5.426  13.133  1.00  0.00     0.009 C 
HETATM   34  C21 UNL     1      -3.748   6.420  13.459  1.00  0.00     0.002 C 
HETATM   35  C22 UNL     1      -4.935   5.881  14.281  1.00  0.00    -0.004 C 
HETATM   36  C35 UNL     1      -3.018   7.613  14.113  1.00  0.00    -0.002 C 
HETATM   37  C23 UNL     1      -5.752   4.880  13.433  1.00  0.00     0.010 C 
HETATM   38  C32 UNL     1      -5.791   7.059  14.884  1.00  0.00     0.002 C 
HETATM   39  C24 UNL     1      -6.931   5.531  12.725  1.00  0.00     0.035 C 
HETATM   40  C25 UNL     1      -7.883   6.196  13.687  1.00  0.00    -0.068 C 
HETATM   41  C26 UNL     1      -9.177   6.342  13.346  1.00  0.00     0.053 C 
HETATM   42  C30 UNL     1      -7.319   6.701  15.012  1.00  0.00    -0.016 C 
HETATM   43  C27 UNL     1     -10.155   7.018  14.235  1.00  0.00     0.149 C 
HETATM   44  O7  UNL     1     -11.343   7.037  13.916  1.00  0.00    -0.293 OA
HETATM   45  C28 UNL     1      -9.662   7.635  15.523  1.00  0.00     0.084 C 
HETATM   46  C29 UNL     1      -8.164   7.930  15.456  1.00  0.00     0.022 C 
HETATM   47  C31 UNL     1      -7.477   5.606  16.105  1.00  0.00     0.020 C 
HETATM   48  C33 UNL     1      -5.488   8.396  14.159  1.00  0.00     0.007 C 
HETATM   49  C34 UNL     1      -3.999   8.802  14.154  1.00  0.00     0.013 C 
HETATM   50  C36 UNL     1      -2.528   7.298  15.554  1.00  0.00     0.019 C 
BRANCH  31  51
HETATM   51  O6  UNL     1      -2.234   8.231  11.861  1.00  0.00    -0.381 OA
HETATM   52  H29 UNL     1      -2.134   9.201  11.847  1.00  0.00     0.211 HD
ENDBRANCH  31  51
ENDBRANCH  29  31
ENDBRANCH  28  29
ENDBRANCH  27  28
ENDBRANCH   1  27
TORSDOF 19
ENDMDL
