MODEL 1
REMARK minimizedAffinity -9.99936485
REMARK  6 active torsions:
REMARK  status: ('A' for Active; 'I' for Inactive)
REMARK    1  A    between atoms: O1_2  and  C2_3 
REMARK    2  A    between atoms: C7_9  and  C8_10 
REMARK    3  A    between atoms: C8_10  and  C9_11 
REMARK    4  A    between atoms: C9_11  and  N2_12 
REMARK       I    between atoms: N2_12  and  C10_13 
REMARK    5  A    between atoms: C10_13  and  C11_15 
REMARK    6  A    between atoms: C16_21  and  C17_22 
ROOT
HETATM    1  C11 UNL     1      -2.495   4.596  12.301  1.00  0.00     0.034 A 
HETATM    2  C12 UNL     1      -3.352   3.530  11.992  1.00  0.00     0.020 A 
HETATM    3  C13 UNL     1      -4.720   3.628  12.256  1.00  0.00     0.040 A 
HETATM    4  C14 UNL     1      -5.229   4.787  12.840  1.00  0.00     0.103 A 
HETATM    5  O3  UNL     1      -6.576   4.831  13.077  1.00  0.00    -0.303 OA
HETATM    6  C15 UNL     1      -7.116   5.969  13.687  1.00  0.00     0.144 A 
HETATM    7  C16 UNL     1      -8.440   5.959  13.923  1.00  0.00     0.054 C 
HETATM    8  C23 UNL     1      -6.230   7.135  14.045  1.00  0.00     0.280 A 
HETATM    9  O4  UNL     1      -6.621   8.178  14.558  1.00  0.00    -0.265 OA
HETATM   10  N3  UNL     1      -4.901   6.981  13.757  1.00  0.00    -0.319 N 
HETATM   11  C24 UNL     1      -4.377   5.838  13.164  1.00  0.00     0.070 A 
HETATM   12  C25 UNL     1      -3.008   5.753  12.902  1.00  0.00     0.049 A 
HETATM   13  H20 UNL     1      -4.310   7.763  14.009  1.00  0.00     0.169 HD
ENDROOT
BRANCH   1  14
HETATM   14  C10 UNL     1      -1.045   4.444  12.005  1.00  0.00     0.251 C 
HETATM   15  N2  UNL     1      -0.207   5.401  12.537  1.00  0.00    -0.357 N 
HETATM   16  H12 UNL     1      -0.600   6.247  12.925  1.00  0.00     0.162 HD
HETATM   17  O2  UNL     1      -0.659   3.525  11.292  1.00  0.00    -0.268 OA
BRANCH  15  18
HETATM   18  C9  UNL     1       1.217   5.394  12.248  1.00  0.00     0.127 C 
BRANCH  18  19
HETATM   19  C8  UNL     1       1.776   6.802  12.018  1.00  0.00     0.060 C 
BRANCH  19  20
HETATM   20  C7  UNL     1       1.437   7.331  10.661  1.00  0.00    -0.029 A 
HETATM   21  C6  UNL     1       0.647   8.429  10.380  1.00  0.00     0.096 A 
HETATM   22  N1  UNL     1       0.584   8.576   9.019  1.00  0.00    -0.365 N 
HETATM   23  C5  UNL     1       1.324   7.597   8.400  1.00  0.00     0.043 A 
HETATM   24  H6  UNL     1       0.070   9.298   8.534  1.00  0.00     0.165 HD
HETATM   25  C4  UNL     1       1.548   7.357   7.041  1.00  0.00     0.033 A 
HETATM   26  C26 UNL     1       1.869   6.798   9.404  1.00  0.00     0.001 A 
HETATM   27  C3  UNL     1       2.355   6.265   6.694  1.00  0.00     0.039 A 
HETATM   28  C2  UNL     1       2.918   5.443   7.670  1.00  0.00     0.069 A 
HETATM   29  C27 UNL     1       2.676   5.706   9.026  1.00  0.00     0.051 A 
BRANCH  28  30
HETATM   30  O1  UNL     1       3.718   4.357   7.439  1.00  0.00    -0.356 OA
HETATM   31  C1  UNL     1       3.640   3.759   6.152  1.00  0.00     0.210 C 
ENDBRANCH  28  30
ENDBRANCH  19  20
ENDBRANCH  18  19
ENDBRANCH  15  18
ENDBRANCH   1  14
BRANCH   7  32
HETATM   32  C17 UNL     1      -9.250   7.002  14.551  1.00  0.00    -0.032 A 
HETATM   33  C18 UNL     1      -9.061   7.312  15.904  1.00  0.00     0.011 A 
HETATM   34  C19 UNL     1      -9.822   8.315  16.509  1.00  0.00     0.003 A 
HETATM   35  C20 UNL     1     -10.772   9.013  15.764  1.00  0.00     0.024 A 
HETATM   36  C21 UNL     1     -10.959   8.705  14.417  1.00  0.00     0.034 A 
HETATM   37 CL1  UNL     1     -12.130   9.572  13.499  1.00  0.00    -0.084 Cl
HETATM   38  C22 UNL     1     -10.202   7.706  13.806  1.00  0.00     0.035 A 
ENDBRANCH   7  32
TORSDOF 6
ENDMDL
