MODEL 1
REMARK minimizedAffinity -6.91481352
REMARK  8 active torsions:
REMARK  status: ('A' for Active; 'I' for Inactive)
REMARK    1  A    between atoms: C5_5  and  C6_6 
REMARK    2  A    between atoms: C6_6  and  O1_9 
REMARK    3  A    between atoms: C11_12  and  C12_13 
REMARK    4  A    between atoms: C12_13  and  C13_14 
REMARK    5  A    between atoms: C17_18  and  O2_19 
REMARK    6  A    between atoms: C18_20  and  C19_21 
REMARK    7  A    between atoms: C20_23  and  O4_24 
REMARK    8  A    between atoms: C21_25  and  C22_26 
ROOT
HETATM    1  C1  UNL     1       0.210   8.002  15.455  1.00  0.00     0.019 C 
HETATM    2  C2  UNL     1       1.293   7.370  14.973  1.00  0.00    -0.068 C 
HETATM    3  C3  UNL     1       1.141   6.512  13.826  1.00  0.00     0.003 C 
HETATM    4  C4  UNL     1       1.569   6.619  12.560  1.00  0.00    -0.019 C 
HETATM    5  C5  UNL     1       2.390   7.583  11.699  1.00  0.00     0.042 C 
HETATM    6  C9  UNL     1       2.814   8.972  12.295  1.00  0.00     0.020 C 
HETATM    7  C10 UNL     1       4.055   9.163  13.218  1.00  0.00     0.030 C 
HETATM    8  C11 UNL     1       5.446   9.334  12.520  1.00  0.00     0.031 C 
HETATM    9  C16 UNL     1       6.477   9.233  13.630  1.00  0.00     0.015 A 
HETATM   10  C17 UNL     1       7.671   8.492  13.548  1.00  0.00     0.091 A 
HETATM   11  C18 UNL     1       8.586   8.485  14.617  1.00  0.00     0.069 A 
HETATM   12  C20 UNL     1       8.306   9.193  15.795  1.00  0.00     0.097 A 
HETATM   13  C21 UNL     1       7.114   9.915  15.897  1.00  0.00     0.070 A 
HETATM   14  C23 UNL     1       6.212   9.935  14.816  1.00  0.00     0.095 A 
HETATM   15  O6  UNL     1       5.087  10.701  14.948  1.00  0.00    -0.338 OA
HETATM   16  C24 UNL     1       3.866  10.308  14.283  1.00  0.00     0.068 C 
HETATM   17  C25 UNL     1       3.305  11.623  13.679  1.00  0.00     0.047 C 
HETATM   18  C26 UNL     1       2.882   9.951  15.432  1.00  0.00     0.039 C 
HETATM   19  C27 UNL     1       3.145   8.677  16.248  1.00  0.00     0.007 C 
HETATM   20  C28 UNL     1       2.630   7.353  15.674  1.00  0.00     0.038 C 
ENDROOT
BRANCH   5  21
HETATM   21  C6  UNL     1       3.434   6.764  10.846  1.00  0.00     0.057 C 
HETATM   22  C7  UNL     1       4.192   7.617   9.823  1.00  0.00     0.046 C 
HETATM   23  C8  UNL     1       2.844   5.488  10.236  1.00  0.00     0.046 C 
BRANCH  21  24
HETATM   24  O1  UNL     1       4.481   6.284  11.729  1.00  0.00    -0.390 OA
HETATM   25  H12 UNL     1       4.085   5.677  12.378  1.00  0.00     0.210 HD
ENDBRANCH  21  24
ENDBRANCH   5  21
BRANCH   8  26
HETATM   26  C12 UNL     1       5.651  10.605  11.656  1.00  0.00     0.014 C 
BRANCH  26  27
HETATM   27  C13 UNL     1       6.874  11.468  12.063  1.00  0.00    -0.022 C 
HETATM   28  C14 UNL     1       8.035  11.242  11.089  1.00  0.00     0.009 C 
HETATM   29  C15 UNL     1       6.534  12.961  12.082  1.00  0.00     0.009 C 
ENDBRANCH  26  27
ENDBRANCH   8  26
BRANCH  10  30
HETATM   30  O2  UNL     1       8.010   7.770  12.435  1.00  0.00    -0.359 OA
HETATM   31  H26 UNL     1       7.285   7.726  11.796  1.00  0.00     0.217 HD
ENDBRANCH  10  30
BRANCH  11  32
HETATM   32  C19 UNL     1       9.861   7.748  14.474  1.00  0.00     0.275 C 
HETATM   33  O3  UNL     1      10.640   8.000  13.557  1.00  0.00    -0.301 OA
ENDBRANCH  11  32
BRANCH  13  34
HETATM   34  C22 UNL     1       6.741  10.654  17.131  1.00  0.00     0.275 C 
HETATM   35  O5  UNL     1       7.032  10.296  18.265  1.00  0.00    -0.301 OA
ENDBRANCH  13  34
BRANCH  12  36
HETATM   36  O4  UNL     1       9.198   9.226  16.835  1.00  0.00    -0.359 OA
HETATM   37  H28 UNL     1       9.971   8.649  16.627  1.00  0.00     0.217 HD
ENDBRANCH  12  36
TORSDOF 8
ENDMDL
