MODEL 1
REMARK minimizedAffinity -10.0176992
REMARK  8 active torsions:
REMARK  status: ('A' for Active; 'I' for Inactive)
REMARK    1  A    between atoms: C2_2  and  C30_33 
REMARK    2  A    between atoms: C3_3  and  C4_4 
REMARK    3  A    between atoms: C4_4  and  C5_5 
REMARK    4  A    between atoms: C5_5  and  C6_6 
REMARK    5  A    between atoms: C6_6  and  C8_8 
REMARK    6  A    between atoms: C21_22  and  O2_23 
REMARK    7  A    between atoms: C23_25  and  O3_26 
REMARK    8  A    between atoms: C30_33  and  O4_34 
ROOT
HETATM    1  C8  UNL     1      -0.731  51.636 -21.467  1.00  0.00    -0.001 C 
HETATM    2  C9  UNL     1      -0.226  50.656 -20.371  1.00  0.00     0.007 C 
HETATM    3  C10 UNL     1      -1.391  49.697 -20.055  1.00  0.00     0.015 C 
HETATM    4  C11 UNL     1      -2.626  50.347 -20.709  1.00  0.00    -0.012 C 
HETATM    5  C12 UNL     1      -3.171  51.420 -19.713  1.00  0.00     0.021 C 
HETATM    6  C13 UNL     1      -3.830  49.481 -21.051  1.00  0.00    -0.060 C 
HETATM    7  C14 UNL     1      -4.689  49.848 -22.034  1.00  0.00     0.002 C 
HETATM    8  C15 UNL     1      -4.398  51.125 -22.813  1.00  0.00     0.157 C 
HETATM    9  O1  UNL     1      -5.272  51.635 -23.523  1.00  0.00    -0.293 OA
HETATM   10  C16 UNL     1      -3.033  51.804 -22.710  1.00  0.00     0.094 C 
HETATM   11  C17 UNL     1      -1.991  50.916 -22.032  1.00  0.00    -0.022 C 
HETATM   12  C18 UNL     1      -1.583  49.801 -23.040  1.00  0.00     0.017 C 
HETATM   13  C19 UNL     1      -5.995  49.077 -22.356  1.00  0.00     0.017 C 
HETATM   14  C20 UNL     1      -7.116  49.893 -21.653  1.00  0.00     0.023 C 
HETATM   15  C21 UNL     1      -6.218  48.981 -23.914  1.00  0.00     0.134 C 
HETATM   16  C22 UNL     1      -6.704  47.620 -24.430  1.00  0.00     0.065 C 
HETATM   17  C23 UNL     1      -7.732  46.974 -23.504  1.00  0.00     0.128 C 
HETATM   18  C24 UNL     1      -7.146  46.694 -22.081  1.00  0.00    -0.017 C 
HETATM   19  C25 UNL     1      -6.659  45.217 -22.076  1.00  0.00     0.018 C 
HETATM   20  C26 UNL     1      -8.235  46.785 -20.991  1.00  0.00     0.018 C 
HETATM   21  C27 UNL     1      -5.889  47.611 -21.795  1.00  0.00     0.011 C 
HETATM   22  C28 UNL     1      -5.420  47.605 -20.327  1.00  0.00     0.011 C 
HETATM   23  C29 UNL     1      -4.047  48.262 -20.186  1.00  0.00     0.036 C 
ENDROOT
BRANCH   1  24
HETATM   24  C6  UNL     1       0.408  52.214 -22.358  1.00  0.00    -0.014 C 
HETATM   25  C7  UNL     1       1.268  53.217 -21.578  1.00  0.00     0.010 C 
BRANCH  24  26
HETATM   26  C5  UNL     1       0.007  52.796 -23.732  1.00  0.00     0.008 C 
BRANCH  26  27
HETATM   27  C4  UNL     1      -0.098  51.717 -24.820  1.00  0.00     0.028 C 
BRANCH  27  28
HETATM   28  C3  UNL     1       1.047  51.823 -25.790  1.00  0.00    -0.022 C 
HETATM   29  C2  UNL     1       0.991  51.805 -27.137  1.00  0.00    -0.064 C 
HETATM   30  C1  UNL     1      -0.276  51.717 -27.946  1.00  0.00     0.045 C 
BRANCH  29  31
HETATM   31  C30 UNL     1       2.249  51.905 -27.959  1.00  0.00     0.197 C 
BRANCH  31  32
HETATM   32  O4  UNL     1       3.341  51.419 -27.191  1.00  0.00    -0.397 OA
HETATM   33  H48 UNL     1       4.147  51.649 -27.678  1.00  0.00     0.209 HD
ENDBRANCH  31  32
ENDBRANCH  29  31
ENDBRANCH  27  28
ENDBRANCH  26  27
ENDBRANCH  24  26
ENDBRANCH   1  24
BRANCH  15  34
HETATM   34  O2  UNL     1      -7.182  49.952 -24.346  1.00  0.00    -0.394 OA
HETATM   35  H30 UNL     1      -6.696  50.810 -24.389  1.00  0.00     0.210 HD
ENDBRANCH  15  34
BRANCH  17  36
HETATM   36  O3  UNL     1      -8.917  47.767 -23.467  1.00  0.00    -0.395 OA
HETATM   37  H34 UNL     1      -8.689  48.677 -23.736  1.00  0.00     0.210 HD
ENDBRANCH  17  36
TORSDOF 8
ENDMDL
