MODEL 1
REMARK minimizedAffinity -8.53291035
REMARK CNNscore 0.616634309
REMARK CNNaffinity 7.627388
REMARK  15 active torsions:
REMARK  status: ('A' for Active; 'I' for Inactive)
REMARK    1  A    between atoms: C19_20  and  O2_21 
REMARK    2  A    between atoms: C19_20  and  C20_22 
REMARK    3  A    between atoms: C20_22  and  C21_24 
REMARK    4  A    between atoms: C21_24  and  O4_25 
REMARK    5  A    between atoms: O4_25  and  C22_26 
REMARK    6  A    between atoms: C22_26  and  C23_28 
REMARK    7  A    between atoms: C23_28  and  C24_29 
REMARK    8  A    between atoms: C24_29  and  C25_30 
REMARK       I    between atoms: C25_30  and  N1_32 
REMARK    9  A    between atoms: N1_32  and  C26_33 
REMARK   10  A    between atoms: C26_33  and  C27_34 
REMARK   11  A    between atoms: C27_34  and  C28_35 
REMARK   12  A    between atoms: C28_35  and  C29_36 
REMARK   13  A    between atoms: C29_36  and  C30_37 
REMARK   14  A    between atoms: C30_37  and  C31_38 
REMARK   15  A    between atoms: C31_38  and  O8_40 
ROOT
HETATM    1  C1  UNL     1       1.707   7.656  11.363  1.00  0.00     0.020 C 
HETATM    2  C2  UNL     1       0.779   7.868  12.594  1.00  0.00    -0.016 C 
HETATM    3  C3  UNL     1       1.183   9.220  13.252  1.00  0.00     0.022 C 
HETATM    4  C4  UNL     1       2.535   9.200  13.952  1.00  0.00     0.084 C 
HETATM    5  C5  UNL     1       2.578   8.091  14.967  1.00  0.00     0.149 C 
HETATM    6  O1  UNL     1       3.254   8.158  15.989  1.00  0.00    -0.293 OA
HETATM    7  C6  UNL     1       1.847   6.842  14.657  1.00  0.00     0.053 C 
HETATM    8  C7  UNL     1       1.075   6.715  13.562  1.00  0.00    -0.068 C 
HETATM    9  C8  UNL     1       0.496   5.351  13.270  1.00  0.00     0.035 C 
HETATM   10  C9  UNL     1      -0.688   5.355  12.315  1.00  0.00     0.010 C 
HETATM   11  C10 UNL     1      -1.556   6.606  12.434  1.00  0.00    -0.004 C 
HETATM   12  C11 UNL     1      -0.734   7.879  12.064  1.00  0.00     0.002 C 
HETATM   13  C12 UNL     1      -1.576   9.165  12.297  1.00  0.00     0.007 C 
HETATM   14  C13 UNL     1      -2.352   9.236  13.623  1.00  0.00     0.013 C 
HETATM   15  C14 UNL     1      -3.197   7.972  13.878  1.00  0.00    -0.002 C 
HETATM   16  C15 UNL     1      -4.348   7.886  12.841  1.00  0.00     0.019 C 
HETATM   17  C16 UNL     1      -2.214   6.775  13.812  1.00  0.00     0.002 C 
HETATM   18  C17 UNL     1      -3.029   5.611  14.360  1.00  0.00     0.009 C 
HETATM   19  C18 UNL     1      -3.902   6.240  15.459  1.00  0.00     0.047 C 
HETATM   20  C19 UNL     1      -3.760   7.783  15.323  1.00  0.00     0.128 C 
ENDROOT
BRANCH  20  21
HETATM   21  O2  UNL     1      -2.791   8.216  16.282  1.00  0.00    -0.381 OA
HETATM   22  H27 UNL     1      -3.098   7.949  17.170  1.00  0.00     0.211 HD
ENDBRANCH  20  21
BRANCH  20  23
HETATM   23  C20 UNL     1      -5.088   8.521  15.603  1.00  0.00     0.185 C 
HETATM   24  O3  UNL     1      -5.166   9.754  15.608  1.00  0.00    -0.292 OA
BRANCH  23  25
HETATM   25  C21 UNL     1      -6.316   7.655  15.890  1.00  0.00     0.260 C 
BRANCH  25  26
HETATM   26  O4  UNL     1      -7.413   7.972  15.032  1.00  0.00    -0.314 OA
BRANCH  26  27
HETATM   27  C22 UNL     1      -8.341   6.980  14.934  1.00  0.00     0.259 C 
HETATM   28  O5  UNL     1      -9.189   6.729  15.780  1.00  0.00    -0.265 OA
BRANCH  27  29
HETATM   29  C23 UNL     1      -8.150   6.199  13.668  1.00  0.00     0.120 C 
BRANCH  29  30
HETATM   30  C24 UNL     1      -7.093   5.128  13.883  1.00  0.00     0.112 C 
BRANCH  30  31
HETATM   31  C25 UNL     1      -7.432   3.862  13.129  1.00  0.00     0.217 C 
HETATM   32  O6  UNL     1      -8.574   3.435  13.005  1.00  0.00    -0.274 OA
HETATM   33  N1  UNL     1      -6.324   3.232  12.601  1.00  0.00    -0.361 N 
HETATM   34  H34 UNL     1      -5.470   3.772  12.529  1.00  0.00     0.162 HD
BRANCH  33  35
HETATM   35  C26 UNL     1      -6.475   2.071  11.747  1.00  0.00     0.122 C 
BRANCH  35  36
HETATM   36  C27 UNL     1      -5.119   1.532  11.297  1.00  0.00     0.020 C 
BRANCH  36  37
HETATM   37  C28 UNL     1      -3.988   2.558  11.427  1.00  0.00     0.002 C 
BRANCH  37  38
HETATM   38  C29 UNL     1      -2.604   1.984  11.741  1.00  0.00     0.010 C 
BRANCH  38  39
HETATM   39  C30 UNL     1      -1.594   2.182  10.613  1.00  0.00     0.110 C 
BRANCH  39  40
HETATM   40  C31 UNL     1      -0.807   0.927  10.343  1.00  0.00     0.139 C 
HETATM   41  O7  UNL     1      -0.286   0.185  11.158  1.00  0.00    -0.650 OA
BRANCH  40  42
HETATM   42  O8  UNL     1      -0.723   0.663   9.023  1.00  0.00    -0.776 OA
HETATM   43  H45 UNL     1      -0.199  -0.165   8.980  1.00  0.00     0.167 HD
ENDBRANCH  40  42
ENDBRANCH  39  40
ENDBRANCH  38  39
ENDBRANCH  37  38
ENDBRANCH  36  37
ENDBRANCH  35  36
ENDBRANCH  33  35
ENDBRANCH  30  31
ENDBRANCH  29  30
ENDBRANCH  27  29
ENDBRANCH  26  27
ENDBRANCH  25  26
ENDBRANCH  23  25
ENDBRANCH  20  23
TORSDOF 15
ENDMDL
