MODEL 1
REMARK minimizedAffinity -5.68842936
REMARK CNNscore 0.649363518
REMARK CNNaffinity 6.40423822
REMARK  10 active torsions:
REMARK  status: ('A' for Active; 'I' for Inactive)
REMARK    1  A    between atoms: C2_2  and  O1_3 
REMARK    2  A    between atoms: O1_3  and  C3_4 
REMARK    3  A    between atoms: C3_4  and  C4_6 
REMARK    4  A    between atoms: C4_6  and  C5_7 
REMARK    5  A    between atoms: C5_7  and  C6_8 
REMARK    6  A    between atoms: C6_8  and  C8_10 
REMARK    7  A    between atoms: C13_15  and  O3_16 
REMARK    8  A    between atoms: C17_21  and  O4_22 
REMARK    9  A    between atoms: C24_29  and  O5_30 
REMARK   10  A    between atoms: O5_30  and  C25_31 
ROOT
HETATM    1  C8  UNL     1     -17.421   1.111  14.235  1.00  0.00     0.000 C 
HETATM    2  C9  UNL     1     -17.430   1.513  12.726  1.00  0.00     0.006 C 
HETATM    3  C10 UNL     1     -16.211   0.884  12.065  1.00  0.00     0.006 C 
HETATM    4  C11 UNL     1     -15.784  -0.232  13.018  1.00  0.00     0.003 C 
HETATM    5  C12 UNL     1     -16.599  -1.554  12.759  1.00  0.00     0.025 C 
HETATM    6  C13 UNL     1     -16.225  -2.179  11.388  1.00  0.00     0.137 C 
HETATM    7  C14 UNL     1     -16.315  -3.706  11.327  1.00  0.00     0.092 C 
HETATM    8 BR1  UNL     1     -18.174  -4.321  11.413  1.00  0.00    -0.088 Br
HETATM    9  C15 UNL     1     -15.390  -4.343  12.372  1.00  0.00     0.013 C 
HETATM   10  C16 UNL     1     -15.411  -5.886  12.320  1.00  0.00     0.038 C 
HETATM   11  C17 UNL     1     -14.499  -6.490  13.377  1.00  0.00     0.118 C 
HETATM   12  C18 UNL     1     -14.945  -6.104  14.785  1.00  0.00     0.032 C 
HETATM   13  C19 UNL     1     -15.849  -4.869  14.833  1.00  0.00     0.012 C 
HETATM   14  C20 UNL     1     -15.479  -3.732  13.827  1.00  0.00    -0.035 C 
HETATM   15  C21 UNL     1     -14.077  -3.207  14.215  1.00  0.00     0.016 C 
HETATM   16  C22 UNL     1     -16.566  -2.585  13.922  1.00  0.00     0.003 C 
HETATM   17  C23 UNL     1     -16.727  -1.886  15.283  1.00  0.00     0.039 C 
HETATM   18  C24 UNL     1     -15.833  -0.669  15.496  1.00  0.00     0.141 C 
HETATM   19  C27 UNL     1     -16.010   0.437  14.421  1.00  0.00    -0.009 C 
HETATM   20  C28 UNL     1     -14.925   1.519  14.681  1.00  0.00     0.018 C 
ENDROOT
BRANCH   1  21
HETATM   21  C6  UNL     1     -17.891   2.338  15.096  1.00  0.00    -0.013 C 
HETATM   22  C7  UNL     1     -16.919   2.532  16.282  1.00  0.00     0.010 C 
BRANCH  21  23
HETATM   23  C5  UNL     1     -18.013   3.654  14.303  1.00  0.00     0.014 C 
BRANCH  23  24
HETATM   24  C4  UNL     1     -16.930   4.707  14.543  1.00  0.00     0.111 C 
BRANCH  24  25
HETATM   25  C3  UNL     1     -16.798   5.644  13.369  1.00  0.00     0.258 C 
HETATM   26  O2  UNL     1     -17.231   5.404  12.251  1.00  0.00    -0.265 OA
BRANCH  25  27
HETATM   27  O1  UNL     1     -16.158   6.787  13.737  1.00  0.00    -0.322 OA
BRANCH  27  28
HETATM   28  C2  UNL     1     -14.955   6.575  14.483  1.00  0.00     0.174 C 
HETATM   29  C1  UNL     1     -13.790   6.576  13.513  1.00  0.00     0.034 C 
ENDBRANCH  27  28
ENDBRANCH  25  27
ENDBRANCH  24  25
ENDBRANCH  23  24
ENDBRANCH  21  23
ENDBRANCH   1  21
BRANCH  18  30
HETATM   30  O5  UNL     1     -16.073  -0.164  16.819  1.00  0.00    -0.316 OA
BRANCH  30  31
HETATM   31  C25 UNL     1     -16.824  -0.936  17.651  1.00  0.00     0.255 C 
HETATM   32  C26 UNL     1     -18.278  -0.645  17.441  1.00  0.00     0.126 C 
HETATM   33  O6  UNL     1     -16.389  -1.738  18.465  1.00  0.00    -0.266 OA
ENDBRANCH  30  31
ENDBRANCH  18  30
BRANCH   6  34
HETATM   34  O3  UNL     1     -17.017  -1.582  10.357  1.00  0.00    -0.394 OA
HETATM   35  H22 UNL     1     -16.900  -2.090   9.537  1.00  0.00     0.210 HD
ENDBRANCH   6  34
BRANCH  11  36
HETATM   36  O4  UNL     1     -14.510  -7.907  13.237  1.00  0.00    -0.396 OA
HETATM   37  H28 UNL     1     -13.960  -8.276  13.948  1.00  0.00     0.210 HD
ENDBRANCH  11  36
TORSDOF 10
ENDMDL
