MODEL 1
REMARK minimizedAffinity -7.83759928
REMARK CNNscore 0.562553287
REMARK CNNaffinity 6.23449564
REMARK  6 active torsions:
REMARK  status: ('A' for Active; 'I' for Inactive)
REMARK       I    between atoms: N1_1  and  C1_2 
REMARK       I    between atoms: C1_2  and  N2_3 
REMARK    1  A    between atoms: N3_4  and  C2_6 
REMARK    2  A    between atoms: C11_16  and  S1_17 
REMARK    3  A    between atoms: S1_17  and  O4_20 
REMARK    4  A    between atoms: C23_33  and  O6_34 
REMARK    5  A    between atoms: C29_40  and  C30_41 
REMARK    6  A    between atoms: C30_41  and  O7_42 
ROOT
HETATM    1  C2  UNL     1      -6.864  47.032 -18.905  1.00  0.00     0.263 C 
HETATM    2  O1  UNL     1      -6.533  45.611 -18.748  1.00  0.00    -0.322 OA
HETATM    3  C3  UNL     1      -6.818  44.811 -19.825  1.00  0.00     0.071 C 
HETATM    4  C4  UNL     1      -6.422  45.103 -21.128  1.00  0.00     0.037 C 
HETATM    5  C5  UNL     1      -6.951  44.369 -22.193  1.00  0.00     0.010 C 
HETATM    6  C6  UNL     1      -7.858  43.325 -21.959  1.00  0.00    -0.058 C 
HETATM    7  C7  UNL     1      -8.139  42.957 -20.636  1.00  0.00     0.010 C 
HETATM    8  C8  UNL     1      -7.612  43.692 -19.574  1.00  0.00     0.037 C 
HETATM    9  C9  UNL     1      -8.570  42.654 -23.111  1.00  0.00     0.040 C 
HETATM   10  C10 UNL     1     -10.082  42.962 -23.146  1.00  0.00     0.027 C 
HETATM   11  C11 UNL     1     -10.422  44.458 -23.392  1.00  0.00     0.130 C 
HETATM   12  C12 UNL     1     -11.566  44.959 -22.458  1.00  0.00     0.037 C 
HETATM   13  C13 UNL     1     -12.936  44.381 -22.732  1.00  0.00    -0.014 C 
HETATM   14  C14 UNL     1     -14.010  45.180 -22.912  1.00  0.00    -0.050 C 
HETATM   15  C15 UNL     1     -13.847  46.641 -23.189  1.00  0.00     0.042 C 
HETATM   16  C16 UNL     1     -12.975  47.178 -22.068  1.00  0.00     0.001 C 
HETATM   17  C17 UNL     1     -13.754  47.084 -20.729  1.00  0.00     0.038 C 
HETATM   18  C18 UNL     1     -14.317  45.732 -20.190  1.00  0.00     0.130 C 
HETATM   19  O5  UNL     1     -15.328  45.019 -20.924  1.00  0.00    -0.371 OA
HETATM   20  C19 UNL     1     -15.328  44.762 -22.327  1.00  0.00     0.185 C 
HETATM   21  C20 UNL     1     -16.585  45.299 -23.030  1.00  0.00    -0.006 A 
HETATM   22  C21 UNL     1     -16.794  44.899 -24.369  1.00  0.00     0.014 A 
HETATM   23  C22 UNL     1     -17.912  45.325 -25.089  1.00  0.00     0.037 A 
HETATM   24  C23 UNL     1     -18.843  46.155 -24.477  1.00  0.00     0.067 A 
HETATM   25  C24 UNL     1     -18.674  46.566 -23.161  1.00  0.00     0.057 A 
HETATM   26  C25 UNL     1     -17.555  46.147 -22.433  1.00  0.00     0.029 A 
HETATM   27  C26 UNL     1     -17.417  46.617 -21.085  1.00  0.00    -0.066 C 
HETATM   28  C27 UNL     1     -17.024  46.874 -19.978  1.00  0.00    -0.101 C 
HETATM   29  C28 UNL     1     -16.174  46.988 -18.784  1.00  0.00     0.103 C 
HETATM   30  C29 UNL     1     -15.006  45.947 -18.786  1.00  0.00     0.049 C 
HETATM   31  C31 UNL     1     -11.572  46.522 -22.236  1.00  0.00     0.032 C 
HETATM   32  C32 UNL     1     -10.514  46.951 -21.226  1.00  0.00    -0.053 C 
HETATM   33  C33 UNL     1      -9.425  47.717 -21.669  1.00  0.00     0.008 C 
HETATM   34  C34 UNL     1      -8.287  47.858 -20.874  1.00  0.00     0.012 C 
HETATM   35  C35 UNL     1      -8.214  47.239 -19.619  1.00  0.00    -0.010 C 
HETATM   36  C36 UNL     1      -9.369  46.627 -19.107  1.00  0.00     0.012 C 
HETATM   37  C37 UNL     1     -10.501  46.472 -19.910  1.00  0.00     0.008 C 
ENDROOT
BRANCH   1  38
HETATM   38  N3  UNL     1      -5.803  47.903 -19.444  1.00  0.00    -0.341 N 
HETATM   39  C1  UNL     1      -5.006  48.464 -18.618  1.00  0.00     0.124 C 
HETATM   40  N1  UNL     1      -4.040  49.296 -19.070  1.00  0.00    -0.279 NA
HETATM   41  N2  UNL     1      -4.939  48.379 -17.271  1.00  0.00    -0.279 NA
HETATM   42  H1  UNL     1      -3.985  50.150 -18.529  1.00  0.00     0.126 HD
HETATM   43  H2  UNL     1      -4.191  49.505 -20.053  1.00  0.00     0.126 HD
HETATM   44  H3  UNL     1      -3.979  48.362 -16.944  1.00  0.00     0.126 HD
HETATM   45  H4  UNL     1      -5.433  47.564 -16.909  1.00  0.00     0.126 HD
ATOM     46  H3  UNL     1      -5.709  48.054 -20.449  1.00  0.00     0.164 HD
ENDBRANCH   1  38
BRANCH  11  47
HETATM   47  S1  UNL     1     -10.797  44.762 -25.142  1.00  0.00     0.099 S 
HETATM   48  O2  UNL     1     -11.461  43.625 -25.739  1.00  0.00    -0.601 OA
HETATM   49  O3  UNL     1     -11.267  46.113 -25.344  1.00  0.00    -0.601 OA
BRANCH  47  50
HETATM   50  O4  UNL     1      -9.291  44.712 -25.723  1.00  0.00    -0.295 OA
HETATM   51  H15 UNL     1      -9.308  44.176 -26.545  1.00  0.00     0.232 HD
ENDBRANCH  47  50
ENDBRANCH  11  47
BRANCH  30  52
HETATM   52  C30 UNL     1     -13.980  46.287 -17.697  1.00  0.00     0.172 C 
BRANCH  52  53
HETATM   53  O7  UNL     1     -14.355  47.463 -16.989  1.00  0.00    -0.400 OA
HETATM   54  H34 UNL     1     -14.156  48.231 -17.549  1.00  0.00     0.209 HD
ENDBRANCH  52  53
ENDBRANCH  30  52
BRANCH  24  55
HETATM   55  O6  UNL     1     -19.949  46.594 -25.144  1.00  0.00    -0.361 OA
HETATM   56  H27 UNL     1     -19.927  46.239 -26.048  1.00  0.00     0.217 HD
ENDBRANCH  24  55
TORSDOF 6
ENDMDL
