MODEL 1
REMARK minimizedAffinity -8.38522053
REMARK CNNscore 0.799105227
REMARK CNNaffinity 6.73802757
REMARK  11 active torsions:
REMARK  status: ('A' for Active; 'I' for Inactive)
REMARK    1  A    between atoms: C2_2  and  C3_3 
REMARK    2  A    between atoms: C2_2  and  C10_11 
REMARK    3  A    between atoms: C4_4  and  C5_5 
REMARK    4  A    between atoms: C5_5  and  C7_7 
REMARK    5  A    between atoms: C7_7  and  C9_9 
REMARK    6  A    between atoms: C9_9  and  O1_10 
REMARK    7  A    between atoms: C11_12  and  O2_13 
REMARK    8  A    between atoms: C12_14  and  O3_15 
REMARK    9  A    between atoms: C23_26  and  O4_27 
REMARK   10  A    between atoms: C26_30  and  O5_31 
REMARK   11  A    between atoms: C28_33  and  O6_34 
ROOT
HETATM    1  C10 UNL     1      -4.416   6.542  14.669  1.00  0.00     0.033 C 
HETATM    2  C11 UNL     1      -3.009   5.869  14.615  1.00  0.00     0.152 C 
HETATM    3  C12 UNL     1      -2.013   6.902  15.218  1.00  0.00     0.155 C 
HETATM    4  C13 UNL     1      -2.908   8.041  15.711  1.00  0.00     0.060 C 
HETATM    5  C14 UNL     1      -4.091   8.072  14.692  1.00  0.00    -0.028 C 
HETATM    6  C15 UNL     1      -3.754   8.619  13.283  1.00  0.00     0.016 C 
HETATM    7  C16 UNL     1      -5.191   8.958  15.303  1.00  0.00     0.011 C 
HETATM    8  C17 UNL     1      -4.665  10.367  15.644  1.00  0.00     0.009 C 
HETATM    9  C18 UNL     1      -3.439  10.328  16.598  1.00  0.00     0.029 C 
HETATM   10  C19 UNL     1      -2.956  11.746  17.099  1.00  0.00    -0.031 C 
HETATM   11  C20 UNL     1      -2.544  12.653  15.909  1.00  0.00     0.016 C 
HETATM   12  C21 UNL     1      -4.119  12.468  17.861  1.00  0.00     0.012 C 
HETATM   13  C22 UNL     1      -3.724  13.125  19.193  1.00  0.00     0.032 C 
HETATM   14  C23 UNL     1      -2.355  13.795  19.167  1.00  0.00     0.118 C 
HETATM   15  C24 UNL     1      -1.240  12.867  18.663  1.00  0.00     0.039 C 
HETATM   16  C25 UNL     1      -1.774  11.533  18.097  1.00  0.00     0.025 C 
HETATM   17  C26 UNL     1      -0.642  10.662  17.522  1.00  0.00     0.126 C 
HETATM   18  C27 UNL     1      -1.162   9.297  17.063  1.00  0.00     0.071 C 
HETATM   19  C28 UNL     1      -2.294   9.418  16.036  1.00  0.00     0.071 C 
ENDROOT
BRANCH   1  20
HETATM   20  C2  UNL     1      -5.549   5.977  13.766  1.00  0.00     0.011 C 
HETATM   21  C1  UNL     1      -6.744   5.522  14.623  1.00  0.00     0.015 C 
BRANCH  20  22
HETATM   22  C3  UNL     1      -5.184   4.962  12.707  1.00  0.00    -0.026 C 
HETATM   23  C4  UNL     1      -5.311   3.629  12.790  1.00  0.00    -0.026 C 
BRANCH  23  24
HETATM   24  C5  UNL     1      -4.876   2.671  11.705  1.00  0.00     0.009 C 
HETATM   25  C6  UNL     1      -5.487   3.131  10.376  1.00  0.00     0.014 C 
BRANCH  24  26
HETATM   26  C7  UNL     1      -3.335   2.486  11.662  1.00  0.00     0.012 C 
HETATM   27  C8  UNL     1      -2.641   3.277  10.544  1.00  0.00     0.012 C 
BRANCH  26  28
HETATM   28  C9  UNL     1      -2.959   0.999  11.570  1.00  0.00     0.168 C 
BRANCH  28  29
HETATM   29  O1  UNL     1      -1.806   0.837  10.753  1.00  0.00    -0.400 OA
HETATM   30  H17 UNL     1      -1.623  -0.115  10.704  1.00  0.00     0.209 HD
ENDBRANCH  28  29
ENDBRANCH  26  28
ENDBRANCH  24  26
ENDBRANCH  23  24
ENDBRANCH  20  22
ENDBRANCH   1  20
BRANCH   2  31
HETATM   31  O2  UNL     1      -2.598   5.469  13.321  1.00  0.00    -0.393 OA
HETATM   32  H20 UNL     1      -1.915   6.112  13.034  1.00  0.00     0.210 HD
ENDBRANCH   2  31
BRANCH   3  33
HETATM   33  O3  UNL     1      -1.078   7.353  14.234  1.00  0.00    -0.392 OA
HETATM   34  H22 UNL     1      -0.212   6.995  14.487  1.00  0.00     0.210 HD
ENDBRANCH   3  33
BRANCH  19  35
HETATM   35  O6  UNL     1      -1.711   9.987  14.872  1.00  0.00    -0.389 OA
HETATM   36  H48 UNL     1      -1.279   9.262  14.371  1.00  0.00     0.210 HD
ENDBRANCH  19  35
BRANCH  17  37
HETATM   37  O5  UNL     1       0.357  10.430  18.523  1.00  0.00    -0.395 OA
HETATM   38  H45 UNL     1      -0.086  10.061  19.310  1.00  0.00     0.210 HD
ENDBRANCH  17  37
BRANCH  14  39
HETATM   39  O4  UNL     1      -2.407  14.960  18.345  1.00  0.00    -0.396 OA
HETATM   40  H40 UNL     1      -3.098  15.547  18.702  1.00  0.00     0.210 HD
ENDBRANCH  14  39
TORSDOF 11
ENDMDL
