MODEL 1
REMARK minimizedAffinity -8.58200073
REMARK  9 active torsions:
REMARK  status: ('A' for Active; 'I' for Inactive)
REMARK    1  A    between atoms: O1_2  and  C2_3 
REMARK    2  A    between atoms: C2_3  and  C3_4 
REMARK    3  A    between atoms: C3_4  and  N1_5 
REMARK       I    between atoms: N1_5  and  C4_6 
REMARK    4  A    between atoms: C4_6  and  C5_8 
REMARK    5  A    between atoms: C5_8  and  C7_10 
REMARK    6  A    between atoms: C15_20  and  N3_21 
REMARK       I    between atoms: N3_21  and  C16_22 
REMARK    7  A    between atoms: C16_22  and  C17_24 
REMARK    8  A    between atoms: C17_24  and  N4_25 
REMARK    9  A    between atoms: C23_32  and  O4_33 
ROOT
HETATM    1  C7  UNL     1      -6.520   4.621  14.107  1.00  0.00     0.027 C 
HETATM    2  C8  UNL     1      -6.471   5.965  14.849  1.00  0.00     0.009 C 
HETATM    3  C9  UNL     1      -5.056   6.322  15.292  1.00  0.00     0.010 C 
HETATM    4  C10 UNL     1      -4.045   6.360  14.126  1.00  0.00    -0.033 C 
HETATM    5  C11 UNL     1      -4.411   7.524  13.169  1.00  0.00     0.016 C 
HETATM    6  C12 UNL     1      -2.635   6.634  14.738  1.00  0.00     0.058 C 
HETATM    7  C13 UNL     1      -1.582   6.402  13.717  1.00  0.00     0.010 A 
HETATM    8  C14 UNL     1      -1.723   5.626  12.587  1.00  0.00     0.029 A 
HETATM    9  N2  UNL     1      -0.614   5.610  11.761  1.00  0.00    -0.339 N 
ATOM     10  H2  UNL     1      -0.552   5.120  10.869  1.00  0.00     0.168 HD
HETATM   11  C15 UNL     1       0.350   6.323  12.301  1.00  0.00     0.151 A 
HETATM   12  S1  UNL     1      -0.025   7.078  13.784  1.00  0.00    -0.056 SA
HETATM   13  C20 UNL     1      -2.991   4.890  12.218  1.00  0.00     0.040 C 
HETATM   14  C21 UNL     1      -2.638   3.450  11.811  1.00  0.00     0.017 C 
HETATM   15  C22 UNL     1      -4.049   4.965  13.394  1.00  0.00     0.033 C 
HETATM   16  C23 UNL     1      -5.486   4.571  12.948  1.00  0.00     0.128 C 
ENDROOT
BRANCH   1  17
HETATM   17  C5  UNL     1      -7.954   4.232  13.629  1.00  0.00     0.080 C 
HETATM   18  C6  UNL     1      -8.024   3.010  12.710  1.00  0.00     0.020 C 
BRANCH  17  19
HETATM   19  C4  UNL     1      -8.710   5.433  13.055  1.00  0.00     0.222 C 
HETATM   20  N1  UNL     1      -9.691   5.974  13.852  1.00  0.00    -0.359 N 
HETATM   21  H8  UNL     1      -9.695   5.741  14.834  1.00  0.00     0.162 HD
HETATM   22  O2  UNL     1      -8.466   5.852  11.925  1.00  0.00    -0.273 OA
BRANCH  20  23
HETATM   23  C3  UNL     1     -10.409   7.175  13.456  1.00  0.00     0.148 C 
BRANCH  23  24
HETATM   24  C2  UNL     1     -11.920   7.033  13.653  1.00  0.00     0.186 C 
BRANCH  24  25
HETATM   25  O1  UNL     1     -12.659   8.034  12.955  1.00  0.00    -0.394 OA
HETATM   26  C1  UNL     1     -11.839   9.068  12.422  1.00  0.00     0.201 C 
ENDBRANCH  24  25
ENDBRANCH  23  24
ENDBRANCH  20  23
ENDBRANCH  17  19
ENDBRANCH   1  17
BRANCH  16  27
HETATM   27  O4  UNL     1      -5.456   3.234  12.456  1.00  0.00    -0.395 OA
HETATM   28  H38 UNL     1      -6.146   3.134  11.779  1.00  0.00     0.210 HD
ENDBRANCH  16  27
BRANCH  11  29
HETATM   29  N3  UNL     1       1.564   6.450  11.689  1.00  0.00    -0.306 N 
HETATM   30  C16 UNL     1       2.234   5.522  10.926  1.00  0.00     0.252 C 
HETATM   31  O3  UNL     1       1.894   4.369  10.682  1.00  0.00    -0.271 OA
HETATM   32  H23 UNL     1       1.963   7.384  11.712  1.00  0.00     0.171 HD
BRANCH  30  33
HETATM   33  C17 UNL     1       3.580   6.063  10.418  1.00  0.00     0.373 C 
BRANCH  33  34
HETATM   34  N4  UNL     1       3.415   6.840   9.159  1.00  0.00     0.088 N 
HETATM   35  C18 UNL     1       2.691   8.092   9.420  1.00  0.00     0.310 C 
HETATM   36  C19 UNL     1       2.668   6.042   8.183  1.00  0.00     0.310 C 
ENDBRANCH  33  34
ENDBRANCH  30  33
ENDBRANCH  11  29
TORSDOF 9
ENDMDL
