MODEL 1
REMARK minimizedAffinity -8.19121647
REMARK CNNscore 0.593994975
REMARK CNNaffinity 7.21180916
REMARK  11 active torsions:
REMARK  status: ('A' for Active; 'I' for Inactive)
REMARK    1  A    between atoms: C2_2  and  C4_4 
REMARK    2  A    between atoms: C4_4  and  C6_6 
REMARK    3  A    between atoms: C7_7  and  C8_8 
REMARK    4  A    between atoms: C8_8  and  C10_10 
REMARK    5  A    between atoms: C24_24  and  O1_25 
REMARK    6  A    between atoms: O1_25  and  C25_26 
REMARK    7  A    between atoms: C26_28  and  C27_29 
REMARK    8  A    between atoms: C27_29  and  O3_30 
REMARK    9  A    between atoms: C28_31  and  O4_32 
REMARK   10  A    between atoms: C29_33  and  O5_34 
REMARK   11  A    between atoms: C30_35  and  O6_36 
ROOT
HETATM    1  C10 UNL     1      -1.521  50.041 -23.568  1.00  0.00     0.001 C 
HETATM    2  C11 UNL     1      -0.692  51.070 -22.771  1.00  0.00     0.006 C 
HETATM    3  C12 UNL     1      -1.718  51.907 -22.045  1.00  0.00     0.009 C 
HETATM    4  C13 UNL     1      -2.826  50.932 -21.612  1.00  0.00     0.036 C 
HETATM    5  C14 UNL     1      -2.712  49.693 -22.569  1.00  0.00    -0.033 C 
HETATM    6  C15 UNL     1      -4.082  49.451 -23.236  1.00  0.00     0.016 C 
HETATM    7  C16 UNL     1      -2.393  48.386 -21.785  1.00  0.00     0.010 C 
HETATM    8  C17 UNL     1      -1.337  48.522 -20.697  1.00  0.00     0.010 C 
HETATM    9  C18 UNL     1      -1.636  49.642 -19.685  1.00  0.00     0.039 C 
HETATM   10  C19 UNL     1      -2.812  50.583 -20.103  1.00  0.00     0.123 C 
HETATM   11  C20 UNL     1      -4.158  50.083 -19.618  1.00  0.00     0.014 C 
HETATM   12  C21 UNL     1      -4.232  49.943 -18.287  1.00  0.00     0.014 C 
HETATM   13  C22 UNL     1      -2.912  50.172 -17.578  1.00  0.00     0.124 C 
HETATM   14  C23 UNL     1      -3.064  50.094 -16.056  1.00  0.00     0.078 C 
HETATM   15  C24 UNL     1      -1.731  50.000 -15.298  1.00  0.00     0.128 C 
HETATM   16  C31 UNL     1      -0.504  50.230 -16.182  1.00  0.00     0.033 C 
HETATM   17  C32 UNL     1      -0.476  49.301 -17.398  1.00  0.00     0.015 C 
HETATM   18  C33 UNL     1      -1.834  49.192 -18.165  1.00  0.00     0.001 C 
HETATM   19  C34 UNL     1      -2.325  47.723 -18.022  1.00  0.00     0.019 C 
HETATM   20  O7  UNL     1      -2.473  51.521 -17.896  1.00  0.00    -0.223 OA
HETATM   21  O8  UNL     1      -2.646  51.817 -19.349  1.00  0.00    -0.224 OA
ENDROOT
BRANCH  15  22
HETATM   22  O1  UNL     1      -1.674  48.687 -14.728  1.00  0.00    -0.353 OA
BRANCH  22  23
HETATM   23  C25 UNL     1      -2.471  48.500 -13.560  1.00  0.00     0.292 C 
HETATM   24  O2  UNL     1      -2.309  49.660 -12.741  1.00  0.00    -0.348 OA
HETATM   25  C26 UNL     1      -3.012  49.579 -11.497  1.00  0.00     0.179 C 
HETATM   26  C28 UNL     1      -2.478  48.404 -10.664  1.00  0.00     0.180 C 
HETATM   27  C29 UNL     1      -2.644  47.110 -11.458  1.00  0.00     0.183 C 
HETATM   28  C30 UNL     1      -1.982  47.223 -12.832  1.00  0.00     0.204 C 
BRANCH  25  29
HETATM   29  C27 UNL     1      -2.855  50.909 -10.746  1.00  0.00     0.198 C 
BRANCH  29  30
HETATM   30  O3  UNL     1      -3.876  51.094  -9.771  1.00  0.00    -0.398 OA
HETATM   31  H41 UNL     1      -3.968  50.241  -9.292  1.00  0.00     0.209 HD
ENDBRANCH  29  30
ENDBRANCH  25  29
BRANCH  26  32
HETATM   32  O4  UNL     1      -3.171  48.288  -9.415  1.00  0.00    -0.390 OA
HETATM   33  H43 UNL     1      -2.895  47.417  -9.055  1.00  0.00     0.210 HD
ENDBRANCH  26  32
BRANCH  27  34
HETATM   34  O5  UNL     1      -2.076  46.025 -10.705  1.00  0.00    -0.390 OA
HETATM   35  H45 UNL     1      -1.916  45.305 -11.350  1.00  0.00     0.210 HD
ENDBRANCH  27  34
BRANCH  28  36
HETATM   36  O6  UNL     1      -2.250  46.009 -13.556  1.00  0.00    -0.388 OA
HETATM   37  H47 UNL     1      -3.165  46.037 -13.883  1.00  0.00     0.210 HD
ENDBRANCH  28  36
ENDBRANCH  22  23
ENDBRANCH  15  22
BRANCH   1  38
HETATM   38  C8  UNL     1      -1.912  50.558 -24.996  1.00  0.00     0.008 C 
HETATM   39  C9  UNL     1      -2.238  49.406 -25.962  1.00  0.00     0.014 C 
BRANCH  38  40
HETATM   40  C7  UNL     1      -0.799  51.339 -25.670  1.00  0.00    -0.026 C 
HETATM   41  C6  UNL     1      -0.945  52.586 -26.150  1.00  0.00    -0.026 C 
BRANCH  41  42
HETATM   42  C4  UNL     1       0.167  53.355 -26.831  1.00  0.00     0.007 C 
HETATM   43  C5  UNL     1      -0.439  54.402 -27.771  1.00  0.00     0.014 C 
BRANCH  42  44
HETATM   44  C2  UNL     1       1.174  52.390 -27.515  1.00  0.00    -0.015 C 
HETATM   45  C1  UNL     1       1.999  51.547 -26.536  1.00  0.00     0.010 C 
HETATM   46  C3  UNL     1       0.478  51.468 -28.521  1.00  0.00     0.010 C 
ENDBRANCH  42  44
ENDBRANCH  41  42
ENDBRANCH  38  40
ENDBRANCH   1  38
TORSDOF 11
ENDMDL
