MODEL 1
REMARK minimizedAffinity -9.83348751
REMARK  9 active torsions:
REMARK  status: ('A' for Active; 'I' for Inactive)
REMARK    1  A    between atoms: C2_2  and  C30_34 
REMARK    2  A    between atoms: C3_3  and  C4_4 
REMARK    3  A    between atoms: C4_4  and  C5_5 
REMARK    4  A    between atoms: C5_5  and  C6_6 
REMARK    5  A    between atoms: C6_6  and  C8_8 
REMARK    6  A    between atoms: C10_10  and  O1_12 
REMARK    7  A    between atoms: C14_15  and  O2_16 
REMARK    8  A    between atoms: C25_28  and  O4_29 
REMARK    9  A    between atoms: C30_34  and  O5_35 
ROOT
HETATM    1  C8  UNL     1       0.753   8.388  13.075  1.00  0.00     0.005 C 
HETATM    2  C9  UNL     1       0.714   9.675  13.899  1.00  0.00     0.048 C 
HETATM    3  C10 UNL     1      -0.424   9.440  14.917  1.00  0.00     0.079 C 
HETATM    4  C11 UNL     1       0.166   8.935  16.240  1.00  0.00     0.051 C 
HETATM    5  C12 UNL     1      -1.350   8.456  14.213  1.00  0.00    -0.030 C 
HETATM    6  C13 UNL     1      -2.461   7.854  14.707  1.00  0.00    -0.011 C 
HETATM    7  C14 UNL     1      -3.083   8.228  16.033  1.00  0.00     0.151 C 
HETATM    8  C15 UNL     1      -4.595   8.441  15.945  1.00  0.00     0.043 C 
HETATM    9  C16 UNL     1      -5.333   7.257  15.278  1.00  0.00     0.015 C 
HETATM   10  C17 UNL     1      -6.895   7.373  15.372  1.00  0.00     0.018 C 
HETATM   11  C18 UNL     1      -7.430   8.810  15.208  1.00  0.00     0.023 C 
HETATM   12  C19 UNL     1      -7.332   6.900  16.782  1.00  0.00     0.023 C 
HETATM   13  C20 UNL     1      -7.655   6.474  14.378  1.00  0.00     0.135 C 
HETATM   14  O3  UNL     1      -8.880   6.308  14.487  1.00  0.00    -0.297 OA
HETATM   15  C21 UNL     1      -6.958   5.900  13.168  1.00  0.00     0.080 C 
HETATM   16  C22 UNL     1      -5.461   5.707  13.331  1.00  0.00     0.020 C 
HETATM   17  C23 UNL     1      -4.734   6.971  13.853  1.00  0.00    -0.004 C 
HETATM   18  C24 UNL     1      -4.985   8.150  12.876  1.00  0.00     0.019 C 
HETATM   19  C25 UNL     1      -3.167   6.696  13.985  1.00  0.00     0.092 C 
HETATM   20  C26 UNL     1      -2.514   6.278  12.636  1.00  0.00     0.044 C 
HETATM   21  C27 UNL     1      -1.020   6.602  12.565  1.00  0.00     0.017 C 
HETATM   22  C28 UNL     1      -0.759   8.092  12.854  1.00  0.00    -0.013 C 
HETATM   23  C29 UNL     1      -1.391   8.981  11.762  1.00  0.00     0.021 C 
ENDROOT
BRANCH   1  24
HETATM   24  C6  UNL     1       1.668   8.381  11.814  1.00  0.00    -0.013 C 
HETATM   25  C7  UNL     1       0.888   7.845  10.608  1.00  0.00     0.010 C 
BRANCH  24  26
HETATM   26  C5  UNL     1       3.084   7.754  11.944  1.00  0.00     0.008 C 
BRANCH  26  27
HETATM   27  C4  UNL     1       3.929   7.519  10.678  1.00  0.00     0.028 C 
BRANCH  27  28
HETATM   28  C3  UNL     1       4.095   6.074  10.301  1.00  0.00    -0.022 C 
HETATM   29  C2  UNL     1       3.597   5.419   9.232  1.00  0.00    -0.064 C 
HETATM   30  C1  UNL     1       2.736   6.033   8.160  1.00  0.00     0.045 C 
BRANCH  29  31
HETATM   31  C30 UNL     1       3.868   3.945   9.052  1.00  0.00     0.197 C 
BRANCH  31  32
HETATM   32  O5  UNL     1       3.099   3.186   9.969  1.00  0.00    -0.397 OA
HETATM   33  H48 UNL     1       2.906   3.747  10.738  1.00  0.00     0.209 HD
ENDBRANCH  31  32
ENDBRANCH  29  31
ENDBRANCH  27  28
ENDBRANCH  26  27
ENDBRANCH  24  26
ENDBRANCH   1  24
BRANCH   3  34
HETATM   34  O1  UNL     1      -1.124  10.661  15.129  1.00  0.00    -0.386 OA
HETATM   35  H19 UNL     1      -0.473  11.318  15.427  1.00  0.00     0.211 HD
ENDBRANCH   3  34
BRANCH   7  36
HETATM   36  O2  UNL     1      -2.816   7.153  16.938  1.00  0.00    -0.391 OA
HETATM   37  H21 UNL     1      -3.074   7.462  17.824  1.00  0.00     0.210 HD
ENDBRANCH   7  36
BRANCH  19  38
HETATM   38  O4  UNL     1      -2.980   5.526  14.813  1.00  0.00    -0.384 OA
HETATM   39  H38 UNL     1      -2.824   5.834  15.730  1.00  0.00     0.211 HD
ENDBRANCH  19  38
TORSDOF 9
ENDMDL
