MODEL 1
REMARK minimizedAffinity -9.02493286
REMARK  12 active torsions:
REMARK  status: ('A' for Active; 'I' for Inactive)
REMARK    1  A    between atoms: C3_3  and  O1_4 
REMARK    2  A    between atoms: O1_4  and  C4_5 
REMARK    3  A    between atoms: C5_7  and  C6_8 
REMARK    4  A    between atoms: C6_8  and  O3_9 
REMARK    5  A    between atoms: C7_10  and  O4_11 
REMARK    6  A    between atoms: C8_12  and  O5_13 
REMARK    7  A    between atoms: C9_14  and  O6_15 
REMARK    8  A    between atoms: C10_16  and  O7_17 
REMARK    9  A    between atoms: C15_22  and  O8_23 
REMARK   10  A    between atoms: C15_22  and  C16_24 
REMARK   11  A    between atoms: C17_25  and  C18_26 
REMARK   12  A    between atoms: C18_26  and  O9_28 
ROOT
HETATM    1  C1  UNL     1       5.722  62.614 -36.153  1.00  0.00     0.016 C 
HETATM    2  C2  UNL     1       5.947  64.108 -36.432  1.00  0.00     0.052 C 
HETATM    3  C3  UNL     1       7.432  64.430 -36.675  1.00  0.00     0.160 C 
HETATM    4  C10 UNL     1       7.582  65.882 -37.226  1.00  0.00     0.148 C 
HETATM    5  C11 UNL     1       6.391  66.806 -36.931  1.00  0.00     0.046 C 
HETATM    6  C12 UNL     1       5.742  66.581 -35.545  1.00  0.00    -0.010 C 
HETATM    7  C13 UNL     1       4.600  67.622 -35.393  1.00  0.00     0.018 C 
HETATM    8  C14 UNL     1       6.774  66.923 -34.440  1.00  0.00     0.018 C 
HETATM    9  C15 UNL     1       5.193  65.092 -35.458  1.00  0.00     0.088 C 
ENDROOT
BRANCH   3  10
HETATM   10  O1  UNL     1       8.200  64.165 -35.497  1.00  0.00    -0.350 OA
BRANCH  10  11
HETATM   11  C4  UNL     1       9.312  63.292 -35.741  1.00  0.00     0.292 C 
HETATM   12  O2  UNL     1       8.827  61.939 -35.750  1.00  0.00    -0.348 OA
HETATM   13  C5  UNL     1       8.979  61.212 -34.523  1.00  0.00     0.179 C 
HETATM   14  C7  UNL     1       8.892  62.137 -33.303  1.00  0.00     0.180 C 
HETATM   15  C8  UNL     1      10.136  63.029 -33.316  1.00  0.00     0.183 C 
HETATM   16  C9  UNL     1      10.438  63.586 -34.716  1.00  0.00     0.204 C 
BRANCH  13  17
HETATM   17  C6  UNL     1       7.913  60.114 -34.511  1.00  0.00     0.198 C 
BRANCH  17  18
HETATM   18  O3  UNL     1       7.658  59.658 -35.838  1.00  0.00    -0.398 OA
HETATM   19  H10 UNL     1       8.525  59.355 -36.173  1.00  0.00     0.209 HD
ENDBRANCH  17  18
ENDBRANCH  13  17
BRANCH  14  20
HETATM   20  O4  UNL     1       8.857  61.432 -32.056  1.00  0.00    -0.390 OA
HETATM   21  H12 UNL     1       7.968  61.034 -31.990  1.00  0.00     0.210 HD
ENDBRANCH  14  20
BRANCH  15  22
HETATM   22  O5  UNL     1       9.986  64.085 -32.357  1.00  0.00    -0.390 OA
HETATM   23  H14 UNL     1       9.727  63.639 -31.527  1.00  0.00     0.210 HD
ENDBRANCH  15  22
BRANCH  16  24
HETATM   24  O6  UNL     1      11.670  62.988 -35.177  1.00  0.00    -0.388 OA
HETATM   25  H16 UNL     1      12.386  63.441 -34.696  1.00  0.00     0.210 HD
ENDBRANCH  16  24
ENDBRANCH  10  11
ENDBRANCH   3  10
BRANCH   4  26
HETATM   26  O7  UNL     1       8.798  66.497 -36.798  1.00  0.00    -0.393 OA
HETATM   27  H18 UNL     1       8.829  67.392 -37.180  1.00  0.00     0.210 HD
ENDBRANCH   4  26
BRANCH   9  28
HETATM   28  O8  UNL     1       3.854  65.102 -36.031  1.00  0.00    -0.385 OA
HETATM   29  H27 UNL     1       3.408  64.290 -35.734  1.00  0.00     0.211 HD
ENDBRANCH   9  28
BRANCH   9  30
HETATM   30  C16 UNL     1       4.942  64.694 -34.015  1.00  0.00     0.010 C 
HETATM   31  C17 UNL     1       4.185  63.690 -33.538  1.00  0.00     0.003 C 
BRANCH  31  32
HETATM   32  C18 UNL     1       3.983  63.329 -32.091  1.00  0.00     0.136 C 
HETATM   33  C19 UNL     1       3.587  64.549 -31.271  1.00  0.00     0.043 C 
BRANCH  32  34
HETATM   34  O9  UNL     1       2.981  62.329 -31.963  1.00  0.00    -0.392 OA
HETATM   35  H34 UNL     1       2.867  62.156 -31.014  1.00  0.00     0.210 HD
ENDBRANCH  32  34
ENDBRANCH  31  32
ENDBRANCH   9  30
TORSDOF 12
ENDMDL
