MODEL 1
REMARK minimizedAffinity -7.46582222
REMARK CNNscore 0.585355937
REMARK CNNaffinity 5.98146677
REMARK  5 active torsions:
REMARK  status: ('A' for Active; 'I' for Inactive)
REMARK    1  A    between atoms: C2_2  and  C4_4 
REMARK    2  A    between atoms: C7_7  and  C8_8 
REMARK    3  A    between atoms: C8_8  and  O2_10 
REMARK    4  A    between atoms: C11_13  and  C12_14 
REMARK    5  A    between atoms: C12_14  and  O4_16 
ROOT
HETATM    1  C4  UNL     1     -17.071  45.798 -20.482  1.00  0.00     0.019 C 
HETATM    2  C5  UNL     1     -16.268  46.889 -19.716  1.00  0.00     0.011 C 
HETATM    3  C6  UNL     1     -15.404  47.627 -20.760  1.00  0.00     0.021 C 
HETATM    4  C7  UNL     1     -15.298  46.627 -21.920  1.00  0.00     0.050 C 
HETATM    5  C9  UNL     1     -14.868  47.195 -23.289  1.00  0.00     0.022 C 
HETATM    6  C10 UNL     1     -15.945  47.161 -24.389  1.00  0.00     0.023 C 
HETATM    7  C11 UNL     1     -16.878  45.887 -24.492  1.00  0.00     0.057 C 
HETATM    8  C13 UNL     1     -16.946  45.152 -23.106  1.00  0.00     0.011 C 
HETATM    9  C14 UNL     1     -18.080  44.138 -23.032  1.00  0.00     0.007 C 
HETATM   10  C15 UNL     1     -18.319  43.447 -24.385  1.00  0.00     0.006 C 
HETATM   11  C16 UNL     1     -17.037  43.322 -25.257  1.00  0.00     0.003 C 
HETATM   12  C17 UNL     1     -17.135  42.256 -26.471  1.00  0.00    -0.035 C 
HETATM   13  C18 UNL     1     -15.839  41.372 -26.376  1.00  0.00     0.016 C 
HETATM   14  C19 UNL     1     -18.317  41.257 -26.280  1.00  0.00     0.017 C 
HETATM   15  C20 UNL     1     -18.626  40.437 -27.521  1.00  0.00     0.080 C 
HETATM   16  C21 UNL     1     -19.124  41.345 -28.616  1.00  0.00     0.135 C 
HETATM   17  O5  UNL     1     -19.955  40.923 -29.426  1.00  0.00    -0.297 OA
HETATM   18  C22 UNL     1     -18.557  42.777 -28.690  1.00  0.00     0.017 C 
HETATM   19  C23 UNL     1     -18.381  43.089 -30.199  1.00  0.00     0.023 C 
HETATM   20  C24 UNL     1     -19.626  43.733 -28.144  1.00  0.00     0.023 C 
HETATM   21  C25 UNL     1     -17.164  42.831 -27.945  1.00  0.00     0.009 C 
HETATM   22  C26 UNL     1     -16.395  44.152 -28.081  1.00  0.00     0.007 C 
HETATM   23  C27 UNL     1     -16.755  45.173 -27.018  1.00  0.00     0.011 C 
HETATM   24  C28 UNL     1     -16.403  44.758 -25.576  1.00  0.00    -0.022 C 
HETATM   25  C29 UNL     1     -14.849  44.635 -25.497  1.00  0.00     0.017 C 
HETATM   26  C30 UNL     1     -16.773  46.145 -21.954  1.00  0.00     0.018 C 
ENDROOT
BRANCH   4  27
HETATM   27  C8  UNL     1     -14.188  45.645 -21.499  1.00  0.00     0.149 C 
HETATM   28  O1  UNL     1     -13.253  45.921 -20.759  1.00  0.00    -0.649 OA
BRANCH  27  29
HETATM   29  O2  UNL     1     -14.268  44.404 -21.999  1.00  0.00    -0.776 OA
HETATM   30  H11 UNL     1     -13.490  43.948 -21.613  1.00  0.00     0.167 HD
ENDBRANCH  27  29
ENDBRANCH   4  27
BRANCH   1  31
HETATM   31  C2  UNL     1     -18.508  45.750 -19.988  1.00  0.00    -0.088 C 
HETATM   32  C1  UNL     1     -19.204  44.628 -19.747  1.00  0.00     0.014 C 
HETATM   33  C3  UNL     1     -19.155  47.097 -19.792  1.00  0.00     0.043 C 
ENDBRANCH   1  31
BRANCH   7  34
HETATM   34  C12 UNL     1     -18.224  46.558 -24.896  1.00  0.00     0.149 C 
HETATM   35  O3  UNL     1     -18.797  47.455 -24.294  1.00  0.00    -0.649 OA
BRANCH  34  36
HETATM   36  O4  UNL     1     -18.859  46.019 -25.946  1.00  0.00    -0.776 OA
HETATM   37  H16 UNL     1     -19.685  46.543 -26.011  1.00  0.00     0.167 HD
ENDBRANCH  34  36
ENDBRANCH   7  34
TORSDOF 5
ENDMDL
