MODEL 1
REMARK minimizedAffinity -7.98584366
REMARK CNNscore 0.56310606
REMARK CNNaffinity 7.40679884
REMARK  10 active torsions:
REMARK  status: ('A' for Active; 'I' for Inactive)
REMARK    1  A    between atoms: C3_3  and  O1_4 
REMARK    2  A    between atoms: N1_14  and  O2_16 
REMARK    3  A    between atoms: O2_16  and  C13_17 
REMARK    4  A    between atoms: C13_17  and  C14_18 
REMARK       I    between atoms: C14_18  and  N2_20 
REMARK    5  A    between atoms: N2_20  and  C15_21 
REMARK    6  A    between atoms: C15_21  and  C16_22 
REMARK    7  A    between atoms: C15_21  and  C19_29 
REMARK       I    between atoms: C16_22  and  N3_24 
REMARK    8  A    between atoms: N3_24  and  C17_25 
REMARK    9  A    between atoms: C17_25  and  C18_26 
REMARK   10  A    between atoms: C18_26  and  O6_28 
ROOT
HETATM    1  C1  UNL     1      -0.456  54.215  -7.722  1.00  0.00     0.015 C 
HETATM    2  C2  UNL     1       0.255  53.630  -8.491  1.00  0.00    -0.078 C 
HETATM    3  C3  UNL     1       1.143  52.948  -9.445  1.00  0.00     0.128 C 
HETATM    4  C4  UNL     1       1.917  51.796  -8.796  1.00  0.00     0.052 C 
HETATM    5  C5  UNL     1       2.511  51.076 -10.001  1.00  0.00     0.010 C 
HETATM    6  C6  UNL     1       1.366  51.059 -11.022  1.00  0.00     0.002 C 
HETATM    7  C7  UNL     1       1.769  50.913 -12.508  1.00  0.00    -0.004 C 
HETATM    8  C8  UNL     1       2.946  51.773 -12.997  1.00  0.00     0.010 C 
HETATM    9  C9  UNL     1       3.265  51.519 -14.470  1.00  0.00     0.035 C 
HETATM   10  C10 UNL     1       2.058  51.578 -15.378  1.00  0.00    -0.069 C 
HETATM   11  C11 UNL     1       2.126  52.259 -16.535  1.00  0.00     0.030 C 
HETATM   12  C12 UNL     1       1.030  52.217 -17.536  1.00  0.00     0.032 C 
HETATM   13  N1  UNL     1       1.141  52.977 -18.587  1.00  0.00    -0.271 N 
ATOM     14  H1  UNL     1       1.913  53.623 -18.750  1.00  0.00     0.194 HD
HETATM   15  C22 UNL     1      -0.106  51.240 -17.293  1.00  0.00     0.060 C 
HETATM   16  C23 UNL     1      -0.418  51.146 -15.804  1.00  0.00     0.020 C 
HETATM   17  C24 UNL     1       0.822  50.802 -14.926  1.00  0.00    -0.016 C 
HETATM   18  C25 UNL     1       1.103  49.285 -15.101  1.00  0.00     0.020 C 
HETATM   19  C26 UNL     1       0.524  51.120 -13.409  1.00  0.00     0.002 C 
HETATM   20  C27 UNL     1      -0.102  52.523 -13.180  1.00  0.00     0.007 C 
HETATM   21  C28 UNL     1       0.225  53.214 -11.854  1.00  0.00     0.014 C 
HETATM   22  C29 UNL     1       0.427  52.263 -10.663  1.00  0.00     0.003 C 
HETATM   23  C30 UNL     1      -0.957  51.685 -10.265  1.00  0.00     0.020 C 
ENDROOT
BRANCH   3  24
HETATM   24  O1  UNL     1       2.125  53.889  -9.889  1.00  0.00    -0.377 OA
HETATM   25  H2  UNL     1       1.666  54.736 -10.027  1.00  0.00     0.211 HD
ENDBRANCH   3  24
BRANCH  13  26
HETATM   26  O2  UNL     1       0.067  52.795 -19.467  1.00  0.00    -0.271 OA
BRANCH  26  27
HETATM   27  C13 UNL     1       0.568  52.357 -20.722  1.00  0.00     0.303 C 
BRANCH  27  28
HETATM   28  C14 UNL     1      -0.594  52.160 -21.688  1.00  0.00     0.244 C 
HETATM   29  O3  UNL     1      -1.779  52.210 -21.356  1.00  0.00    -0.271 OA
HETATM   30  N2  UNL     1      -0.218  51.890 -22.991  1.00  0.00    -0.346 N 
HETATM   31  H16 UNL     1       0.708  51.505 -23.131  1.00  0.00     0.163 HD
BRANCH  30  32
HETATM   32  C15 UNL     1      -1.213  51.618 -24.045  1.00  0.00     0.180 C 
BRANCH  32  33
HETATM   33  C16 UNL     1      -1.929  50.259 -23.797  1.00  0.00     0.241 C 
HETATM   34  O4  UNL     1      -1.519  49.395 -23.021  1.00  0.00    -0.271 OA
HETATM   35  N3  UNL     1      -3.008  50.031 -24.632  1.00  0.00    -0.349 N 
HETATM   36  H18 UNL     1      -3.069  50.595 -25.477  1.00  0.00     0.163 HD
BRANCH  35  37
HETATM   37  C17 UNL     1      -3.731  48.773 -24.591  1.00  0.00     0.232 C 
BRANCH  37  38
HETATM   38  C18 UNL     1      -4.438  48.411 -25.896  1.00  0.00     0.158 C 
HETATM   39  O5  UNL     1      -3.888  48.272 -26.979  1.00  0.00    -0.649 OA
BRANCH  38  40
HETATM   40  O6  UNL     1      -5.782  48.307 -25.808  1.00  0.00    -0.775 OA
HETATM   41  H21 UNL     1      -6.051  48.057 -26.715  1.00  0.00     0.167 HD
ENDBRANCH  38  40
ENDBRANCH  37  38
ENDBRANCH  35  37
ENDBRANCH  32  33
BRANCH  32  42
HETATM   42  C19 UNL     1      -0.566  51.783 -25.442  1.00  0.00     0.009 C 
HETATM   43  C20 UNL     1      -0.798  50.563 -26.339  1.00  0.00     0.012 C 
HETATM   44  C21 UNL     1       0.921  52.142 -25.404  1.00  0.00     0.012 C 
ENDBRANCH  32  42
ENDBRANCH  30  32
ENDBRANCH  27  28
ENDBRANCH  26  27
ENDBRANCH  13  26
TORSDOF 10
ENDMDL
