MODEL 1
REMARK minimizedAffinity -9.45445824
REMARK CNNscore 0.763566256
REMARK CNNaffinity 6.48430109
REMARK  6 active torsions:
REMARK  status: ('A' for Active; 'I' for Inactive)
REMARK    1  A    between atoms: C11_13  and  C12_14 
REMARK    2  A    between atoms: C12_14  and  O3_15 
REMARK    3  A    between atoms: C13_16  and  O4_17 
REMARK    4  A    between atoms: C22_27  and  O6_28 
REMARK    5  A    between atoms: C23_29  and  O7_30 
REMARK    6  A    between atoms: C29_37  and  C30_38 
ROOT
HETATM    1  C1  UNL     1       1.096  54.329 -24.441  1.00  0.00     0.046 C 
HETATM    2  C2  UNL     1       0.375  53.125 -23.896  1.00  0.00    -0.056 C 
HETATM    3  C3  UNL     1       0.671  52.625 -22.675  1.00  0.00    -0.004 C 
HETATM    4  C4  UNL     1      -0.087  51.483 -22.006  1.00  0.00     0.150 C 
HETATM    5  C5  UNL     1      -0.353  51.837 -20.541  1.00  0.00     0.270 C 
HETATM    6  O1  UNL     1      -0.656  52.954 -20.140  1.00  0.00    -0.264 OA
HETATM    7  O2  UNL     1      -0.248  50.728 -19.758  1.00  0.00    -0.315 OA
HETATM    8  C6  UNL     1      -0.636  50.840 -18.374  1.00  0.00     0.139 C 
HETATM    9  C7  UNL     1      -2.158  50.882 -18.237  1.00  0.00     0.065 C 
HETATM   10  C8  UNL     1      -2.629  50.562 -16.814  1.00  0.00     0.131 C 
HETATM   11  C9  UNL     1      -3.676  49.435 -16.612  1.00  0.00     0.059 C 
HETATM   12  C10 UNL     1      -3.767  48.313 -17.624  1.00  0.00    -0.017 C 
HETATM   13  C11 UNL     1      -4.829  48.009 -18.408  1.00  0.00    -0.031 C 
HETATM   14  C13 UNL     1      -4.911  46.792 -19.334  1.00  0.00     0.156 C 
HETATM   15  C14 UNL     1      -3.603  46.074 -19.788  1.00  0.00     0.037 C 
HETATM   16  C15 UNL     1      -3.901  44.907 -20.738  1.00  0.00     0.017 C 
HETATM   17  C16 UNL     1      -2.611  47.037 -20.395  1.00  0.00    -0.020 C 
HETATM   18  C17 UNL     1      -2.844  47.834 -21.452  1.00  0.00    -0.003 C 
HETATM   19  C18 UNL     1      -1.986  48.968 -21.695  1.00  0.00     0.008 C 
HETATM   20  C19 UNL     1      -2.166  49.924 -22.617  1.00  0.00    -0.019 C 
HETATM   21  C20 UNL     1      -3.067  49.878 -23.820  1.00  0.00     0.206 C 
HETATM   22  O5  UNL     1      -2.441  50.724 -24.816  1.00  0.00    -0.375 OA
HETATM   23  C21 UNL     1      -1.196  51.178 -24.243  1.00  0.00     0.194 C 
HETATM   24  C22 UNL     1      -0.721  52.539 -24.776  1.00  0.00     0.179 C 
HETATM   25  C23 UNL     1      -1.424  51.223 -22.731  1.00  0.00     0.128 C 
HETATM   26  O8  UNL     1      -1.569  50.455 -15.864  1.00  0.00    -0.349 OA
HETATM   27  C24 UNL     1      -0.407  49.694 -16.170  1.00  0.00     0.167 C 
HETATM   28  C25 UNL     1      -0.473  48.315 -15.513  1.00  0.00     0.069 C 
HETATM   29  C26 UNL     1      -0.658  48.425 -14.002  1.00  0.00     0.012 C 
HETATM   30  C27 UNL     1      -0.068  49.725 -13.426  1.00  0.00     0.011 C 
HETATM   31  C28 UNL     1       0.241  49.525 -11.944  1.00  0.00     0.012 C 
HETATM   32  C29 UNL     1       1.119  50.195 -14.301  1.00  0.00     0.132 C 
HETATM   33  O9  UNL     1       0.720  50.421 -15.663  1.00  0.00    -0.349 OA
HETATM   34  C33 UNL     1      -0.151  49.579 -17.673  1.00  0.00     0.101 C 
ENDROOT
BRANCH  32  35
HETATM   35  C30 UNL     1       1.821  51.487 -13.782  1.00  0.00     0.007 C 
HETATM   36  C31 UNL     1       2.956  51.202 -12.786  1.00  0.00     0.012 C 
HETATM   37  C32 UNL     1       0.827  52.442 -13.106  1.00  0.00     0.012 C 
ENDBRANCH  32  35
BRANCH  13  38
HETATM   38  C12 UNL     1      -6.092  48.843 -18.459  1.00  0.00     0.200 C 
BRANCH  38  39
HETATM   39  O3  UNL     1      -7.010  48.363 -17.488  1.00  0.00    -0.397 OA
HETATM   40  H15 UNL     1      -7.025  47.390 -17.578  1.00  0.00     0.209 HD
ENDBRANCH  38  39
ENDBRANCH  13  38
BRANCH  14  41
HETATM   41  O4  UNL     1      -5.767  45.858 -18.660  1.00  0.00    -0.390 OA
HETATM   42  H17 UNL     1      -5.296  45.581 -17.852  1.00  0.00     0.210 HD
ENDBRANCH  14  41
BRANCH  25  43
HETATM   43  O7  UNL     1      -2.405  52.230 -22.404  1.00  0.00    -0.381 OA
HETATM   44  H30 UNL     1      -1.958  53.054 -22.135  1.00  0.00     0.211 HD
ENDBRANCH  25  43
BRANCH  24  45
HETATM   45  O6  UNL     1      -0.210  52.396 -26.104  1.00  0.00    -0.389 OA
HETATM   46  H29 UNL     1       0.493  51.727 -26.082  1.00  0.00     0.210 HD
ENDBRANCH  24  45
TORSDOF 6
ENDMDL
