MODEL 1
REMARK minimizedAffinity -7.66508293
REMARK CNNscore 0.635324001
REMARK CNNaffinity 7.2941823
REMARK  11 active torsions:
REMARK  status: ('A' for Active; 'I' for Inactive)
REMARK    1  A    between atoms: C2_2  and  C3_3 
REMARK    2  A    between atoms: C2_2  and  C4_5 
REMARK    3  A    between atoms: C3_3  and  O1_4 
REMARK    4  A    between atoms: C13_14  and  C14_15 
REMARK    5  A    between atoms: C14_15  and  C16_17 
REMARK    6  A    between atoms: C16_17  and  C17_18 
REMARK    7  A    between atoms: C17_18  and  C18_19 
REMARK    8  A    between atoms: C27_28  and  C28_29 
REMARK    9  A    between atoms: C28_29  and  C29_30 
REMARK   10  A    between atoms: C29_30  and  C30_31 
REMARK   11  A    between atoms: C30_31  and  O3_33 
ROOT
HETATM    1  C4  UNL     1       0.842   7.734  11.929  1.00  0.00     0.025 C 
HETATM    2  C5  UNL     1       0.291   9.111  12.342  1.00  0.00     0.010 C 
HETATM    3  C6  UNL     1      -1.103   9.137  12.970  1.00  0.00     0.007 C 
HETATM    4  C7  UNL     1      -1.909   7.821  12.942  1.00  0.00     0.004 C 
HETATM    5  C8  UNL     1      -1.043   6.663  13.488  1.00  0.00    -0.027 A 
HETATM    6  C9  UNL     1      -1.439   6.138  14.867  1.00  0.00     0.011 C 
HETATM    7  C10 UNL     1      -2.947   5.837  15.048  1.00  0.00     0.011 C 
HETATM    8  C11 UNL     1      -3.854   6.501  13.998  1.00  0.00    -0.032 C 
HETATM    9  C12 UNL     1      -3.938   5.567  12.761  1.00  0.00     0.016 C 
HETATM   10  C13 UNL     1      -5.305   6.840  14.469  1.00  0.00    -0.002 C 
HETATM   11  C22 UNL     1      -5.733   7.971  13.498  1.00  0.00     0.006 C 
HETATM   12  C23 UNL     1      -4.439   8.534  12.863  1.00  0.00     0.011 C 
HETATM   13  C24 UNL     1      -3.285   7.935  13.693  1.00  0.00    -0.032 C 
HETATM   14  C25 UNL     1      -3.162   8.855  14.958  1.00  0.00     0.016 C 
HETATM   15  C26 UNL     1      -0.526   5.589  12.550  1.00  0.00     0.022 A 
HETATM   16  C27 UNL     1       0.433   6.668  12.981  1.00  0.00    -0.024 A 
ENDROOT
BRANCH  10  17
HETATM   17  C14 UNL     1      -6.332   5.689  14.715  1.00  0.00    -0.014 C 
HETATM   18  C15 UNL     1      -6.699   5.671  16.211  1.00  0.00     0.010 C 
BRANCH  17  19
HETATM   19  C16 UNL     1      -7.628   5.741  13.867  1.00  0.00     0.008 C 
BRANCH  19  20
HETATM   20  C17 UNL     1      -8.867   6.329  14.571  1.00  0.00     0.028 C 
BRANCH  20  21
HETATM   21  C18 UNL     1      -9.961   6.745  13.626  1.00  0.00    -0.025 C 
HETATM   22  C19 UNL     1     -10.898   7.698  13.807  1.00  0.00    -0.091 C 
HETATM   23  C20 UNL     1     -11.929   7.967  12.739  1.00  0.00     0.042 C 
HETATM   24  C21 UNL     1     -11.035   8.580  15.019  1.00  0.00     0.042 C 
ENDBRANCH  20  21
ENDBRANCH  19  20
ENDBRANCH  17  19
ENDBRANCH  10  17
BRANCH  16  25
HETATM   25  C28 UNL     1       1.542   6.322  13.973  1.00  0.00     0.021 C 
BRANCH  25  26
HETATM   26  C29 UNL     1       2.380   7.535  14.378  1.00  0.00     0.111 C 
BRANCH  26  27
HETATM   27  C30 UNL     1       2.756   7.473  15.831  1.00  0.00     0.139 C 
HETATM   28  O2  UNL     1       2.343   8.172  16.743  1.00  0.00    -0.650 OA
BRANCH  27  29
HETATM   29  O3  UNL     1       3.668   6.509  16.074  1.00  0.00    -0.776 OA
HETATM   30  H48 UNL     1       3.835   6.588  17.036  1.00  0.00     0.167 HD
ENDBRANCH  27  29
ENDBRANCH  26  27
ENDBRANCH  25  26
ENDBRANCH  16  25
BRANCH   1  31
HETATM   31  C2  UNL     1       0.647   7.385  10.442  1.00  0.00    -0.061 C 
HETATM   32  C1  UNL     1      -0.376   7.825   9.685  1.00  0.00     0.017 C 
BRANCH  31  33
HETATM   33  C3  UNL     1       1.749   6.576   9.799  1.00  0.00     0.198 C 
BRANCH  33  34
HETATM   34  O1  UNL     1       1.555   5.198  10.059  1.00  0.00    -0.397 OA
HETATM   35  H5  UNL     1       2.286   4.724   9.630  1.00  0.00     0.209 HD
ENDBRANCH  33  34
ENDBRANCH  31  33
ENDBRANCH   1  31
TORSDOF 11
ENDMDL
