MODEL 1
REMARK minimizedAffinity -8.44528103
REMARK CNNscore 0.837211967
REMARK CNNaffinity 7.41946411
REMARK  15 active torsions:
REMARK  status: ('A' for Active; 'I' for Inactive)
REMARK    1  A    between atoms: C2_2  and  O2_4 
REMARK    2  A    between atoms: O2_4  and  C3_5 
REMARK    3  A    between atoms: C3_5  and  C4_6 
REMARK    4  A    between atoms: C4_6  and  C5_8 
REMARK    5  A    between atoms: C5_8  and  O4_9 
REMARK    6  A    between atoms: O4_9  and  C6_10 
REMARK    7  A    between atoms: C6_10  and  C7_12 
REMARK    8  A    between atoms: C7_12  and  C8_13 
REMARK    9  A    between atoms: C8_13  and  C9_14 
REMARK       I    between atoms: C9_14  and  N1_16 
REMARK   10  A    between atoms: N1_16  and  C10_17 
REMARK   11  A    between atoms: C10_17  and  C11_18 
REMARK   12  A    between atoms: C11_18  and  C12_19 
REMARK   13  A    between atoms: C12_19  and  C13_20 
REMARK   14  A    between atoms: C13_20  and  C14_21 
REMARK   15  A    between atoms: C14_21  and  O8_23 
ROOT
HETATM    1  C3  UNL     1       1.699   7.545  10.188  1.00  0.00     0.140 C 
HETATM    2  C15 UNL     1       1.186   6.207   9.643  1.00  0.00     0.048 C 
HETATM    3  C16 UNL     1       0.649   5.461  10.865  1.00  0.00     0.009 C 
HETATM    4  C17 UNL     1       0.288   6.525  11.932  1.00  0.00     0.002 C 
HETATM    5  C18 UNL     1      -1.200   6.389  12.354  1.00  0.00    -0.004 C 
HETATM    6  C19 UNL     1      -1.410   5.206  13.296  1.00  0.00     0.010 C 
HETATM    7  C20 UNL     1      -2.898   4.976  13.540  1.00  0.00     0.035 C 
HETATM    8  C21 UNL     1      -3.722   6.232  13.709  1.00  0.00    -0.068 C 
HETATM    9  C22 UNL     1      -5.062   6.105  13.746  1.00  0.00     0.053 C 
HETATM   10  C23 UNL     1      -5.957   7.249  14.040  1.00  0.00     0.149 C 
HETATM   11  O9  UNL     1      -7.174   7.072  14.068  1.00  0.00    -0.293 OA
HETATM   12  C24 UNL     1      -5.333   8.581  14.369  1.00  0.00     0.084 C 
HETATM   13  C25 UNL     1      -4.010   8.738  13.629  1.00  0.00     0.022 C 
HETATM   14  C26 UNL     1      -3.006   7.574  13.882  1.00  0.00    -0.016 C 
HETATM   15  C27 UNL     1      -2.559   7.652  15.372  1.00  0.00     0.020 C 
HETATM   16  C28 UNL     1      -1.708   7.705  12.978  1.00  0.00     0.002 C 
HETATM   17  C29 UNL     1      -1.733   8.766  11.850  1.00  0.00     0.007 C 
HETATM   18  C30 UNL     1      -0.613   8.602  10.801  1.00  0.00     0.013 C 
HETATM   19  C31 UNL     1       0.674   7.915  11.322  1.00  0.00    -0.001 C 
HETATM   20  C32 UNL     1       1.333   8.876  12.341  1.00  0.00     0.019 C 
ENDROOT
BRANCH   1  21
HETATM   21  O2  UNL     1       1.892   8.609   9.224  1.00  0.00    -0.301 OA
BRANCH  21  22
HETATM   22  C2  UNL     1       2.497   8.489   8.020  1.00  0.00     0.256 C 
HETATM   23  C1  UNL     1       1.858   7.376   7.248  1.00  0.00     0.126 C 
HETATM   24  O1  UNL     1       3.416   9.166   7.591  1.00  0.00    -0.266 OA
ENDBRANCH  21  22
ENDBRANCH   1  21
BRANCH   1  25
HETATM   25  C4  UNL     1       3.130   7.282  10.769  1.00  0.00     0.186 C 
HETATM   26  O3  UNL     1       3.539   6.144  11.025  1.00  0.00    -0.292 OA
BRANCH  25  27
HETATM   27  C5  UNL     1       4.021   8.476  11.089  1.00  0.00     0.260 C 
BRANCH  27  28
HETATM   28  O4  UNL     1       5.213   8.441  10.307  1.00  0.00    -0.314 OA
BRANCH  28  29
HETATM   29  C6  UNL     1       6.280   7.918  10.973  1.00  0.00     0.259 C 
HETATM   30  O5  UNL     1       7.151   7.225  10.462  1.00  0.00    -0.265 OA
BRANCH  29  31
HETATM   31  C7  UNL     1       6.188   8.251  12.441  1.00  0.00     0.120 C 
BRANCH  31  32
HETATM   32  C8  UNL     1       6.818   7.153  13.290  1.00  0.00     0.112 C 
BRANCH  32  33
HETATM   33  C9  UNL     1       8.095   7.626  13.956  1.00  0.00     0.217 C 
HETATM   34  O6  UNL     1       9.146   7.800  13.351  1.00  0.00    -0.274 OA
HETATM   35  N1  UNL     1       7.931   7.887  15.302  1.00  0.00    -0.361 N 
HETATM   36  H10 UNL     1       7.160   7.425  15.770  1.00  0.00     0.162 HD
BRANCH  35  37
HETATM   37  C10 UNL     1       9.057   8.315  16.110  1.00  0.00     0.122 C 
BRANCH  37  38
HETATM   38  C11 UNL     1       8.851   9.737  16.623  1.00  0.00     0.020 C 
BRANCH  38  39
HETATM   39  C12 UNL     1       9.764  10.052  17.809  1.00  0.00     0.012 C 
BRANCH  39  40
HETATM   40  C13 UNL     1       9.287  11.294  18.562  1.00  0.00     0.110 C 
BRANCH  40  41
HETATM   41  C14 UNL     1       7.896  11.184  19.130  1.00  0.00     0.139 C 
HETATM   42  O7  UNL     1       7.441  11.902  20.005  1.00  0.00    -0.650 OA
BRANCH  41  43
HETATM   43  O8  UNL     1       7.129  10.233  18.569  1.00  0.00    -0.776 OA
HETATM   44  H19 UNL     1       6.272  10.312  19.038  1.00  0.00     0.167 HD
ENDBRANCH  41  43
ENDBRANCH  40  41
ENDBRANCH  39  40
ENDBRANCH  38  39
ENDBRANCH  37  38
ENDBRANCH  35  37
ENDBRANCH  32  33
ENDBRANCH  31  32
ENDBRANCH  29  31
ENDBRANCH  28  29
ENDBRANCH  27  28
ENDBRANCH  25  27
ENDBRANCH   1  25
TORSDOF 15
ENDMDL
