MODEL 1
REMARK minimizedAffinity -9.73412037
REMARK CNNscore 0.446258903
REMARK CNNaffinity 7.45211411
REMARK  7 active torsions:
REMARK  status: ('A' for Active; 'I' for Inactive)
REMARK    1  A    between atoms: C6_7  and  O2_8 
REMARK    2  A    between atoms: C11_15  and  C13_17 
REMARK    3  A    between atoms: C26_34  and  C27_35 
REMARK    4  A    between atoms: C27_35  and  C28_36 
REMARK    5  A    between atoms: C32_40  and  C33_41 
REMARK    6  A    between atoms: C33_41  and  N2_42 
REMARK    7  A    between atoms: C33_41  and  N3_43 
ROOT
HETATM    1  C1  UNL     1       1.028  52.699 -17.023  1.00  0.00     0.077 C 
HETATM    2  C2  UNL     1       0.659  52.530 -18.463  1.00  0.00     0.053 A 
HETATM    3  C3  UNL     1       1.329  53.133 -19.455  1.00  0.00     0.088 A 
HETATM    4  C4  UNL     1       0.907  52.912 -20.846  1.00  0.00     0.190 A 
HETATM    5  O1  UNL     1       1.495  53.436 -21.784  1.00  0.00    -0.287 OA
HETATM    6  C5  UNL     1      -0.250  52.031 -21.062  1.00  0.00     0.082 A 
HETATM    7  C6  UNL     1      -0.739  51.754 -22.348  1.00  0.00     0.092 A 
HETATM    8  C7  UNL     1      -1.857  50.916 -22.534  1.00  0.00     0.016 A 
HETATM    9  C8  UNL     1      -2.385  50.286 -21.395  1.00  0.00     0.082 A 
HETATM   10  C9  UNL     1      -1.913  50.581 -20.112  1.00  0.00     0.075 A 
HETATM   11  C10 UNL     1      -0.849  51.460 -19.947  1.00  0.00     0.095 A 
HETATM   12  O3  UNL     1      -0.426  51.692 -18.662  1.00  0.00    -0.314 OA
HETATM   13  O4  UNL     1      -3.366  49.330 -21.426  1.00  0.00    -0.337 OA
HETATM   14  C11 UNL     1      -3.514  48.622 -22.676  1.00  0.00     0.095 C 
HETATM   15  C12 UNL     1      -2.306  47.674 -22.859  1.00  0.00     0.050 C 
HETATM   16  C18 UNL     1      -3.652  49.676 -23.806  1.00  0.00     0.175 C 
HETATM   17  O5  UNL     1      -4.120  49.141 -25.063  1.00  0.00    -0.310 OA
HETATM   18  C19 UNL     1      -3.242  48.643 -25.965  1.00  0.00     0.297 C 
HETATM   19  O6  UNL     1      -2.140  48.176 -25.735  1.00  0.00    -0.262 OA
HETATM   20  C20 UNL     1      -3.735  48.922 -27.341  1.00  0.00     0.175 A 
HETATM   21  C21 UNL     1      -3.304  50.206 -28.031  1.00  0.00     0.051 C 
HETATM   22  C22 UNL     1      -2.580  51.204 -27.109  1.00  0.00     0.004 C 
HETATM   23  C23 UNL     1      -3.500  51.834 -26.050  1.00  0.00     0.001 C 
HETATM   24  C24 UNL     1      -2.864  51.965 -24.653  1.00  0.00     0.012 C 
HETATM   25  C25 UNL     1      -2.442  50.647 -23.921  1.00  0.00     0.057 C 
HETATM   26  O7  UNL     1      -3.680  47.785 -28.226  1.00  0.00    -0.358 OA
HETATM   27  C26 UNL     1      -4.991  48.143 -27.787  1.00  0.00     0.172 A 
ENDROOT
BRANCH  27  28
HETATM   28  C27 UNL     1      -5.958  48.644 -28.816  1.00  0.00     0.074 C 
BRANCH  28  29
HETATM   29  C28 UNL     1      -7.060  47.673 -29.160  1.00  0.00    -0.055 A 
HETATM   30  C29 UNL     1      -7.219  46.487 -28.432  1.00  0.00     0.007 A 
HETATM   31  C30 UNL     1      -8.238  45.592 -28.750  1.00  0.00     0.001 A 
HETATM   32  C31 UNL     1      -9.109  45.869 -29.805  1.00  0.00     0.011 A 
HETATM   33  C32 UNL     1      -8.970  47.045 -30.561  1.00  0.00     0.004 A 
HETATM   34  C34 UNL     1      -7.944  47.944 -30.214  1.00  0.00     0.018 A 
BRANCH  33  35
HETATM   35  C33 UNL     1      -9.942  47.330 -31.683  1.00  0.00     0.479 C 
BRANCH  35  36
HETATM   36  N2  UNL     1      -9.411  46.958 -32.963  1.00  0.00     0.116 N 
HETATM   37  H37 UNL     1      -8.459  47.308 -33.031  1.00  0.00     0.316 HD
HETATM   38  H38 UNL     1      -9.333  45.944 -32.951  1.00  0.00     0.316 HD
ENDBRANCH  35  36
BRANCH  35  39
HETATM   39  N3  UNL     1     -11.142  46.542 -31.614  1.00  0.00     0.116 N 
HETATM   40  H39 UNL     1     -11.690  46.866 -30.819  1.00  0.00     0.316 HD
HETATM   41  H40 UNL     1     -11.679  46.767 -32.448  1.00  0.00     0.316 HD
ENDBRANCH  35  39
ENDBRANCH  33  35
ENDBRANCH  28  29
ENDBRANCH  27  28
BRANCH  14  42
HETATM   42  C13 UNL     1      -4.823  47.750 -22.542  1.00  0.00     0.026 C 
HETATM   43  C14 UNL     1      -6.046  48.370 -23.261  1.00  0.00     0.037 C 
HETATM   44  C15 UNL     1      -7.354  47.763 -22.765  1.00  0.00     0.270 C 
HETATM   45  N1  UNL     1      -7.603  48.036 -21.351  1.00  0.00     0.083 N 
HETATM   46  C16 UNL     1      -6.386  48.236 -20.567  1.00  0.00     0.270 C 
HETATM   47  H15 UNL     1      -8.157  47.277 -20.954  1.00  0.00     0.315 HD
HETATM   48  C17 UNL     1      -5.204  47.413 -21.076  1.00  0.00     0.037 C 
ENDBRANCH  14  42
BRANCH   7  49
HETATM   49  O2  UNL     1      -0.117  52.259 -23.463  1.00  0.00    -0.359 OA
HETATM   50  H5  UNL     1       0.640  52.820 -23.177  1.00  0.00     0.217 HD
ENDBRANCH   7  49
TORSDOF 7
ENDMDL
