MODEL 1
REMARK minimizedAffinity -9.45907593
REMARK CNNscore 0.71060431
REMARK CNNaffinity 6.89942122
REMARK  10 active torsions:
REMARK  status: ('A' for Active; 'I' for Inactive)
REMARK    1  A    between atoms: O1_2  and  C2_3 
REMARK    2  A    between atoms: C2_3  and  C3_5 
REMARK    3  A    between atoms: C3_5  and  C4_6 
REMARK    4  A    between atoms: C3_5  and  N1_13 
REMARK    5  A    between atoms: C4_6  and  C5_7 
REMARK       I    between atoms: N1_13  and  C11_14 
REMARK    6  A    between atoms: C11_14  and  C12_16 
REMARK    7  A    between atoms: C12_16  and  O4_17 
REMARK    8  A    between atoms: O4_17  and  N2_18 
REMARK    9  A    between atoms: C27_34  and  O5_35 
REMARK   10  A    between atoms: C27_34  and  C28_36 
ROOT
HETATM    1  N2  UNL     1       5.014  63.486 -34.649  1.00  0.00    -0.271 N 
ATOM      2  H2  UNL     1       4.576  63.139 -33.795  1.00  0.00     0.194 HD
HETATM    3  C13 UNL     1       4.621  64.542 -35.298  1.00  0.00     0.032 C 
HETATM    4  C14 UNL     1       5.278  65.109 -36.511  1.00  0.00     0.030 C 
HETATM    5  C15 UNL     1       4.731  66.119 -37.216  1.00  0.00    -0.069 C 
HETATM    6  C16 UNL     1       5.363  66.479 -38.546  1.00  0.00     0.035 C 
HETATM    7  C17 UNL     1       4.960  67.840 -39.101  1.00  0.00     0.010 C 
HETATM    8  C18 UNL     1       3.443  68.112 -39.068  1.00  0.00    -0.004 C 
HETATM    9  C19 UNL     1       2.663  67.091 -38.181  1.00  0.00     0.002 C 
HETATM   10  C20 UNL     1       1.181  67.509 -38.063  1.00  0.00     0.007 C 
HETATM   11  C21 UNL     1       0.514  67.662 -39.450  1.00  0.00     0.013 C 
HETATM   12  C22 UNL     1       1.288  68.619 -40.382  1.00  0.00    -0.002 C 
HETATM   13  C23 UNL     1       1.139  70.070 -39.845  1.00  0.00     0.019 C 
HETATM   14  C24 UNL     1       2.765  68.129 -40.445  1.00  0.00     0.002 C 
HETATM   15  C25 UNL     1       3.368  68.965 -41.567  1.00  0.00     0.009 C 
HETATM   16  C26 UNL     1       2.220  69.121 -42.585  1.00  0.00     0.047 C 
HETATM   17  C27 UNL     1       0.933  68.572 -41.902  1.00  0.00     0.125 C 
HETATM   18  C30 UNL     1       3.409  66.797 -36.838  1.00  0.00    -0.016 C 
HETATM   19  C31 UNL     1       3.682  68.093 -36.036  1.00  0.00     0.020 C 
HETATM   20  C32 UNL     1       2.580  65.832 -35.949  1.00  0.00     0.020 C 
HETATM   21  C33 UNL     1       3.383  65.247 -34.788  1.00  0.00     0.060 C 
ENDROOT
BRANCH   1  22
HETATM   22  O4  UNL     1       6.117  62.884 -35.273  1.00  0.00    -0.271 OA
BRANCH  22  23
HETATM   23  C12 UNL     1       6.305  61.565 -34.763  1.00  0.00     0.303 C 
BRANCH  23  24
HETATM   24  C11 UNL     1       7.795  61.281 -34.671  1.00  0.00     0.244 C 
HETATM   25  N1  UNL     1       8.531  62.332 -34.154  1.00  0.00    -0.345 N 
HETATM   26  H12 UNL     1       8.063  63.233 -34.228  1.00  0.00     0.163 HD
HETATM   27  O3  UNL     1       8.288  60.208 -35.005  1.00  0.00    -0.271 OA
BRANCH  25  28
HETATM   28  C3  UNL     1      10.001  62.337 -34.214  1.00  0.00     0.188 C 
BRANCH  28  29
HETATM   29  C2  UNL     1      10.636  62.539 -32.823  1.00  0.00     0.281 C 
HETATM   30  O2  UNL     1      11.615  63.239 -32.590  1.00  0.00    -0.263 OA
BRANCH  29  31
HETATM   31  O1  UNL     1      10.025  61.748 -31.887  1.00  0.00    -0.325 OA
HETATM   32  C1  UNL     1      10.928  60.992 -31.078  1.00  0.00     0.213 C 
ENDBRANCH  29  31
ENDBRANCH  28  29
BRANCH  28  33
HETATM   33  C4  UNL     1      10.563  63.330 -35.250  1.00  0.00     0.074 C 
BRANCH  33  34
HETATM   34  C5  UNL     1      11.580  62.695 -36.172  1.00  0.00    -0.056 A 
HETATM   35  C6  UNL     1      12.951  62.830 -35.908  1.00  0.00     0.007 A 
HETATM   36  C7  UNL     1      13.895  62.244 -36.755  1.00  0.00     0.001 A 
HETATM   37  C8  UNL     1      13.481  61.524 -37.872  1.00  0.00     0.000 A 
HETATM   38  C9  UNL     1      12.122  61.394 -38.147  1.00  0.00     0.001 A 
HETATM   39  C10 UNL     1      11.174  61.980 -37.304  1.00  0.00     0.007 A 
ENDBRANCH  33  34
ENDBRANCH  28  33
ENDBRANCH  25  28
ENDBRANCH  23  24
ENDBRANCH  22  23
ENDBRANCH   1  22
BRANCH  17  40
HETATM   40  O5  UNL     1       0.765  67.210 -42.320  1.00  0.00    -0.381 OA
HETATM   41  H34 UNL     1       0.769  67.193 -43.293  1.00  0.00     0.211 HD
ENDBRANCH  17  40
BRANCH  17  42
HETATM   42  C28 UNL     1      -0.327  69.378 -42.295  1.00  0.00     0.158 C 
HETATM   43  C29 UNL     1      -1.672  68.768 -41.990  1.00  0.00     0.094 C 
HETATM   44  O6  UNL     1      -0.260  70.491 -42.824  1.00  0.00    -0.295 OA
ENDBRANCH  17  42
TORSDOF 10
ENDMDL
