MODEL 1
REMARK minimizedAffinity -9.28393173
REMARK CNNscore 0.483152986
REMARK CNNaffinity 6.73909569
REMARK  11 active torsions:
REMARK  status: ('A' for Active; 'I' for Inactive)
REMARK    1  A    between atoms: C2_2  and  C3_3 
REMARK    2  A    between atoms: C3_3  and  N1_4 
REMARK       I    between atoms: N1_4  and  C4_5 
REMARK    3  A    between atoms: C4_5  and  C5_7 
REMARK       I    between atoms: N2_8  and  C6_9 
REMARK    4  A    between atoms: C6_9  and  C7_11 
REMARK    5  A    between atoms: C7_11  and  O3_12 
REMARK    6  A    between atoms: C7_11  and  C8_13 
REMARK    7  A    between atoms: C8_13  and  C9_14 
REMARK    8  A    between atoms: C8_13  and  N3_21 
REMARK    9  A    between atoms: C9_14  and  C10_15 
REMARK       I    between atoms: N3_21  and  C16_22 
REMARK   10  A    between atoms: C16_22  and  C17_24 
REMARK   11  A    between atoms: C21_28  and  O5_29 
ROOT
HETATM    1  C8  UNL     1      -2.536   5.953  14.234  1.00  0.00     0.127 C 
ENDROOT
BRANCH   1   2
HETATM    2  C7  UNL     1      -1.011   5.652  14.251  1.00  0.00     0.233 C 
BRANCH   2   3
HETATM    3  C6  UNL     1      -0.209   6.499  13.238  1.00  0.00     0.252 C 
HETATM    4  N2  UNL     1       0.156   7.800  13.567  1.00  0.00    -0.326 N 
HETATM    5  C5  UNL     1       0.904   8.609  12.582  1.00  0.00     0.198 C 
HETATM    6  C24 UNL     1       0.610   8.114  14.907  1.00  0.00     0.201 C 
HETATM    7  C25 UNL     1       2.408   8.448  12.896  1.00  0.00     0.032 C 
HETATM    8  S1  UNL     1       2.413   8.347  14.755  1.00  0.00    -0.137 SA
HETATM    9  C26 UNL     1       3.240   9.685  12.535  1.00  0.00     0.029 C 
HETATM   10  C27 UNL     1       3.068   7.170  12.374  1.00  0.00     0.029 C 
HETATM   11  O2  UNL     1       0.122   5.975  12.169  1.00  0.00    -0.270 OA
BRANCH   5  12
HETATM   12  C4  UNL     1       0.324   8.539  11.139  1.00  0.00     0.242 C 
HETATM   13  N1  UNL     1       1.153   8.144  10.119  1.00  0.00    -0.356 N 
HETATM   14  H6  UNL     1       2.147   8.062  10.257  1.00  0.00     0.162 HD
HETATM   15  O1  UNL     1      -0.832   8.904  10.904  1.00  0.00    -0.271 OA
BRANCH  13  16
HETATM   16  C3  UNL     1       0.678   8.146   8.757  1.00  0.00     0.149 C 
BRANCH  16  17
HETATM   17  C2  UNL     1       1.822   7.981   7.802  1.00  0.00    -0.018 C 
HETATM   18  C1  UNL     1       1.882   7.153   6.749  1.00  0.00     0.008 C 
ENDBRANCH  16  17
ENDBRANCH  13  16
ENDBRANCH   5  12
ENDBRANCH   2   3
BRANCH   2  19
HETATM   19  O3  UNL     1      -0.403   5.745  15.539  1.00  0.00    -0.384 OA
HETATM   20  H9  UNL     1       0.520   5.449  15.428  1.00  0.00     0.210 HD
ENDBRANCH   2  19
ENDBRANCH   1   2
BRANCH   1  21
HETATM   21  C9  UNL     1      -3.103   6.289  15.638  1.00  0.00     0.066 C 
BRANCH  21  22
HETATM   22  C10 UNL     1      -3.379   7.764  15.837  1.00  0.00    -0.056 A 
HETATM   23  C11 UNL     1      -4.559   8.331  15.334  1.00  0.00     0.007 A 
HETATM   24  C12 UNL     1      -4.817   9.692  15.498  1.00  0.00     0.001 A 
HETATM   25  C13 UNL     1      -3.899  10.501  16.165  1.00  0.00     0.000 A 
HETATM   26  C14 UNL     1      -2.725   9.946  16.674  1.00  0.00     0.001 A 
HETATM   27  C15 UNL     1      -2.467   8.584  16.513  1.00  0.00     0.007 A 
ENDBRANCH  21  22
ENDBRANCH   1  21
BRANCH   1  28
HETATM   28  N3  UNL     1      -3.278   4.824  13.647  1.00  0.00    -0.349 N 
HETATM   29  C16 UNL     1      -4.471   5.013  12.979  1.00  0.00     0.252 C 
HETATM   30  O4  UNL     1      -5.000   6.104  12.808  1.00  0.00    -0.268 OA
HETATM   31  H18 UNL     1      -3.010   3.874  13.880  1.00  0.00     0.163 HD
BRANCH  29  32
HETATM   32  C17 UNL     1      -5.145   3.772  12.527  1.00  0.00     0.040 A 
HETATM   33  C18 UNL     1      -4.395   2.920  11.701  1.00  0.00     0.018 A 
HETATM   34  C19 UNL     1      -4.969   1.758  11.192  1.00  0.00     0.004 A 
HETATM   35  C20 UNL     1      -6.289   1.442  11.506  1.00  0.00     0.037 A 
HETATM   36  C21 UNL     1      -7.024   2.283  12.345  1.00  0.00     0.072 A 
HETATM   37  C22 UNL     1      -6.466   3.447  12.891  1.00  0.00    -0.013 A 
HETATM   38  C23 UNL     1      -7.264   4.305  13.835  1.00  0.00     0.052 C 
BRANCH  36  39
HETATM   39  O5  UNL     1      -8.319   1.965  12.652  1.00  0.00    -0.360 OA
HETATM   40  H22 UNL     1      -8.511   1.071  12.325  1.00  0.00     0.217 HD
ENDBRANCH  36  39
ENDBRANCH  29  32
ENDBRANCH   1  28
TORSDOF 11
ENDMDL
