MODEL 1
REMARK minimizedAffinity -7.11336803
REMARK CNNscore 0.756521821
REMARK CNNaffinity 6.37046862
REMARK  6 active torsions:
REMARK  status: ('A' for Active; 'I' for Inactive)
REMARK    1  A    between atoms: C4_4  and  O1_5 
REMARK    2  A    between atoms: C5_6  and  O2_7 
REMARK    3  A    between atoms: C8_11  and  C9_12 
REMARK    4  A    between atoms: C19_23  and  C20_24 
REMARK    5  A    between atoms: C25_31  and  O7_32 
REMARK    6  A    between atoms: C26_33  and  O8_34 
ROOT
HETATM    1  C1  UNL     1     -21.671   6.915  17.497  1.00  0.00     0.040 C 
HETATM    2  C2  UNL     1     -21.753   6.871  15.976  1.00  0.00     0.123 C 
HETATM    3  C3  UNL     1     -21.314   5.507  15.448  1.00  0.00     0.069 C 
HETATM    4  C4  UNL     1     -21.364   5.515  13.927  1.00  0.00     0.188 C 
HETATM    5  C5  UNL     1     -20.484   6.652  13.349  1.00  0.00     0.240 C 
HETATM    6  O3  UNL     1     -19.092   6.374  13.589  1.00  0.00    -0.341 OA
HETATM    7  C6  UNL     1     -18.262   7.491  13.218  1.00  0.00     0.156 C 
HETATM    8  C7  UNL     1     -16.816   7.141  13.582  1.00  0.00     0.056 C 
HETATM    9  C8  UNL     1     -15.801   8.275  13.296  1.00  0.00     0.043 C 
HETATM   10  C10 UNL     1     -16.339   9.648  13.713  1.00  0.00    -0.065 C 
HETATM   11  C11 UNL     1     -15.545  10.594  14.247  1.00  0.00    -0.022 C 
HETATM   12  C12 UNL     1     -14.080  10.431  14.510  1.00  0.00     0.035 C 
HETATM   13  C13 UNL     1     -13.452   9.165  13.880  1.00  0.00     0.032 C 
HETATM   14  C14 UNL     1     -14.438   7.981  14.057  1.00  0.00     0.013 C 
HETATM   15  C15 UNL     1     -13.817   6.621  13.708  1.00  0.00     0.007 C 
HETATM   16  C16 UNL     1     -12.473   6.416  14.387  1.00  0.00     0.013 C 
HETATM   17  C17 UNL     1     -11.422   7.500  14.024  1.00  0.00    -0.003 C 
HETATM   18  C18 UNL     1     -11.041   7.343  12.539  1.00  0.00     0.019 C 
HETATM   19  C19 UNL     1     -10.206   7.318  15.024  1.00  0.00     0.030 C 
HETATM   20  C24 UNL     1     -10.220   8.551  15.938  1.00  0.00     0.044 C 
HETATM   21  C25 UNL     1     -11.649   9.090  15.844  1.00  0.00     0.154 C 
HETATM   22  C26 UNL     1     -11.979   8.928  14.341  1.00  0.00     0.096 C 
HETATM   23  C27 UNL     1     -17.811   9.932  13.492  1.00  0.00     0.069 C 
HETATM   24  C28 UNL     1     -18.697   8.771  13.938  1.00  0.00     0.158 C 
HETATM   25  O9  UNL     1     -20.064   9.080  13.640  1.00  0.00    -0.347 OA
HETATM   26  C29 UNL     1     -20.918   7.994  14.036  1.00  0.00     0.325 C 
HETATM   27  O10 UNL     1     -20.913   7.903  15.468  1.00  0.00    -0.351 OA
ENDROOT
BRANCH  19  28
HETATM   28  C20 UNL     1      -8.853   6.980  14.464  1.00  0.00    -0.045 A 
HETATM   29  C21 UNL     1      -8.569   5.890  13.751  1.00  0.00     0.087 A 
HETATM   30  C22 UNL     1      -7.140   5.915  13.454  1.00  0.00     0.283 A 
HETATM   31  O5  UNL     1      -6.542   5.016  12.887  1.00  0.00    -0.260 OA
HETATM   32  O6  UNL     1      -6.604   7.059  13.958  1.00  0.00    -0.314 OA
HETATM   33  C23 UNL     1      -7.630   7.806  14.622  1.00  0.00     0.213 A 
ENDBRANCH  19  28
BRANCH  22  34
HETATM   34  O8  UNL     1     -11.171   9.902  13.640  1.00  0.00    -0.386 OA
HETATM   35  H34 UNL     1     -11.413  10.773  14.007  1.00  0.00     0.210 HD
ENDBRANCH  22  34
BRANCH  21  36
HETATM   36  O7  UNL     1     -11.701  10.443  16.274  1.00  0.00    -0.392 OA
HETATM   37  H33 UNL     1     -10.801  10.816  16.265  1.00  0.00     0.210 HD
ENDBRANCH  21  36
BRANCH   9  38
HETATM   38  C9  UNL     1     -15.585   8.322  11.766  1.00  0.00     0.245 C 
HETATM   39  O4  UNL     1     -15.685   7.354  11.012  1.00  0.00    -0.306 OA
ENDBRANCH   9  38
BRANCH   5  40
HETATM   40  O2  UNL     1     -20.678   6.669  11.932  1.00  0.00    -0.360 OA
HETATM   41  H9  UNL     1     -20.013   6.037  11.607  1.00  0.00     0.213 HD
ENDBRANCH   5  40
BRANCH   4  42
HETATM   42  O1  UNL     1     -20.975   4.222  13.442  1.00  0.00    -0.390 OA
HETATM   43  H8  UNL     1     -20.996   4.286  12.467  1.00  0.00     0.210 HD
ENDBRANCH   4  42
TORSDOF 6
ENDMDL
