MODEL 1
REMARK minimizedAffinity -6.90583897
REMARK  5 active torsions:
REMARK  status: ('A' for Active; 'I' for Inactive)
REMARK    1  A    between atoms: C1_2  and  C2_3 
REMARK       I    between atoms: C1_2  and  N3_15 
REMARK    2  A    between atoms: C2_3  and  C3_4 
REMARK    3  A    between atoms: C5_7  and  N1_8 
REMARK    4  A    between atoms: N3_15  and  C10_16 
REMARK    5  A    between atoms: C10_16  and  C11_17 
ROOT
HETATM    1  O1  UNL     1      13.630  36.133  18.052  1.00  0.00    -0.273 OA
HETATM    2  C1  UNL     1      12.783  36.165  17.161  1.00  0.00     0.223 C 
HETATM    3  N3  UNL     1      11.481  35.739  17.336  1.00  0.00    -0.360 N 
HETATM    4  H8  UNL     1      10.876  35.698  16.519  1.00  0.00     0.162 HD
ENDROOT
BRANCH   2   5
HETATM    5  C2  UNL     1      13.110  36.642  15.759  1.00  0.00     0.160 C 
BRANCH   5   6
HETATM    6  C3  UNL     1      14.550  36.435  15.430  1.00  0.00     0.026 A 
HETATM    7  C4  UNL     1      15.623  37.166  15.911  1.00  0.00     0.078 A 
HETATM    8  S1  UNL     1      17.090  36.569  15.250  1.00  0.00    -0.063 SA
HETATM    9  C5  UNL     1      16.200  35.408  14.376  1.00  0.00     0.154 A 
HETATM   10  N2  UNL     1      14.892  35.428  14.530  1.00  0.00    -0.339 N 
ATOM     11  H2  UNL     1      14.234  34.804  14.063  1.00  0.00     0.168 HD
BRANCH   9  12
HETATM   12  N1  UNL     1      16.859  34.494  13.539  1.00  0.00    -0.313 N 
HETATM   13  C6  UNL     1      16.456  33.978  12.316  1.00  0.00     0.098 A 
HETATM   14  C7  UNL     1      17.416  33.109  11.845  1.00  0.00     0.019 A 
HETATM   15  C8  UNL     1      18.455  33.074  12.798  1.00  0.00     0.019 A 
HETATM   16  C9  UNL     1      18.097  33.927  13.817  1.00  0.00     0.098 A 
ENDBRANCH   9  12
ENDBRANCH   5   6
ENDBRANCH   2   5
BRANCH   3  17
HETATM   17  C10 UNL     1      11.032  35.166  18.590  1.00  0.00     0.129 C 
BRANCH  17  18
HETATM   18  C11 UNL     1      10.698  36.234  19.649  1.00  0.00     0.037 C 
HETATM   19  C12 UNL     1      11.594  36.105  20.905  1.00  0.00     0.010 C 
HETATM   20  C13 UNL     1      10.921  35.387  22.075  1.00  0.00     0.031 C 
HETATM   21  C14 UNL     1       9.835  34.421  21.615  1.00  0.00     0.273 C 
HETATM   22  N4  UNL     1       8.770  35.123  20.900  1.00  0.00     0.093 N 
HETATM   23  C15 UNL     1       7.820  34.216  20.262  1.00  0.00     0.273 C 
HETATM   24  C19 UNL     1       9.200  36.258  20.063  1.00  0.00     0.228 C 
HETATM   25  C16 UNL     1       6.539  34.960  19.866  1.00  0.00     0.030 C 
HETATM   26  C17 UNL     1       6.795  36.359  19.302  1.00  0.00     0.004 C 
HETATM   27  C18 UNL     1       8.250  36.518  18.873  1.00  0.00     0.036 C 
ENDBRANCH  17  18
ENDBRANCH   3  17
TORSDOF 5
ENDMDL
