MODEL 1
REMARK minimizedAffinity -8.44581127
REMARK CNNscore 0.752133489
REMARK CNNaffinity 6.68061829
REMARK  9 active torsions:
REMARK  status: ('A' for Active; 'I' for Inactive)
REMARK    1  A    between atoms: C2_2  and  C30_35 
REMARK    2  A    between atoms: C3_3  and  C4_4 
REMARK    3  A    between atoms: C4_4  and  O1_5 
REMARK    4  A    between atoms: C4_4  and  C5_6 
REMARK    5  A    between atoms: C5_6  and  C6_7 
REMARK    6  A    between atoms: C6_7  and  C8_9 
REMARK    7  A    between atoms: C10_11  and  O2_12 
REMARK    8  A    between atoms: C29_33  and  O5_34 
REMARK    9  A    between atoms: C30_35  and  O7_37 
ROOT
HETATM    1  C8  UNL     1      -1.464   9.756  16.263  1.00  0.00     0.001 C 
HETATM    2  C9  UNL     1      -0.161   9.519  17.078  1.00  0.00     0.038 C 
HETATM    3  C10 UNL     1       0.848   8.860  16.116  1.00  0.00     0.132 C 
HETATM    4  C11 UNL     1       0.318   9.218  14.699  1.00  0.00     0.017 C 
HETATM    5  C12 UNL     1       0.733  10.696  14.390  1.00  0.00     0.023 C 
HETATM    6  C13 UNL     1       0.766   8.435  13.459  1.00  0.00    -0.029 C 
HETATM    7  C14 UNL     1       0.015   8.444  12.323  1.00  0.00     0.002 C 
HETATM    8  C15 UNL     1      -1.387   9.036  12.390  1.00  0.00     0.157 C 
HETATM    9  O3  UNL     1      -2.097   9.110  11.387  1.00  0.00    -0.293 OA
HETATM   10  C16 UNL     1      -1.955   9.553  13.706  1.00  0.00     0.094 C 
HETATM   11  C17 UNL     1      -1.220   8.991  14.922  1.00  0.00    -0.019 C 
HETATM   12  C18 UNL     1      -1.600   7.489  15.061  1.00  0.00     0.017 C 
HETATM   13  C19 UNL     1       0.517   7.837  10.979  1.00  0.00    -0.008 C 
HETATM   14  C20 UNL     1      -0.166   6.456  10.876  1.00  0.00     0.021 C 
HETATM   15  C21 UNL     1       0.147   8.699   9.736  1.00  0.00     0.022 C 
HETATM   16  C22 UNL     1       0.760   8.214   8.430  1.00  0.00     0.080 C 
HETATM   17  C23 UNL     1       2.259   8.129   8.521  1.00  0.00     0.135 C 
HETATM   18  O4  UNL     1       2.958   8.593   7.617  1.00  0.00    -0.297 OA
HETATM   19  C24 UNL     1       2.851   7.361   9.709  1.00  0.00     0.018 C 
HETATM   20  C25 UNL     1       2.804   5.861   9.388  1.00  0.00     0.023 C 
HETATM   21  C26 UNL     1       4.348   7.754   9.818  1.00  0.00     0.023 C 
HETATM   22  C27 UNL     1       2.100   7.796  11.015  1.00  0.00     0.016 C 
HETATM   23  C28 UNL     1       2.572   7.049  12.266  1.00  0.00     0.043 C 
HETATM   24  C29 UNL     1       2.114   7.759  13.540  1.00  0.00     0.149 C 
ENDROOT
BRANCH   1  25
HETATM   25  C6  UNL     1      -2.768   9.593  17.103  1.00  0.00    -0.011 C 
HETATM   26  C7  UNL     1      -4.082   9.928  16.385  1.00  0.00     0.010 C 
BRANCH  25  27
HETATM   27  C5  UNL     1      -2.655  10.326  18.464  1.00  0.00     0.040 C 
BRANCH  27  28
HETATM   28  C4  UNL     1      -2.746  11.858  18.375  1.00  0.00     0.142 C 
BRANCH  28  29
HETATM   29  C3  UNL     1      -3.836  12.389  19.269  1.00  0.00     0.018 C 
HETATM   30  C2  UNL     1      -4.906  13.148  18.951  1.00  0.00     0.010 C 
HETATM   31  C1  UNL     1      -5.207  13.703  17.588  1.00  0.00     0.055 C 
BRANCH  30  32
HETATM   32  C30 UNL     1      -5.898  13.524  19.994  1.00  0.00     0.171 C 
HETATM   33  O6  UNL     1      -7.109  13.484  19.864  1.00  0.00    -0.646 OA
BRANCH  32  34
HETATM   34  O7  UNL     1      -5.345  13.942  21.145  1.00  0.00    -0.773 OA
HETATM   35  H44 UNL     1      -6.120  14.160  21.702  1.00  0.00     0.167 HD
ENDBRANCH  32  34
ENDBRANCH  30  32
ENDBRANCH  28  29
BRANCH  28  36
HETATM   36  O1  UNL     1      -1.503  12.458  18.701  1.00  0.00    -0.392 OA
HETATM   37  H6  UNL     1      -1.632  13.421  18.658  1.00  0.00     0.210 HD
ENDBRANCH  28  36
ENDBRANCH  27  28
ENDBRANCH  25  27
ENDBRANCH   1  25
BRANCH   3  38
HETATM   38  O2  UNL     1       2.162   9.342  16.364  1.00  0.00    -0.394 OA
HETATM   39  H17 UNL     1       2.360   9.163  17.300  1.00  0.00     0.210 HD
ENDBRANCH   3  38
BRANCH  24  40
HETATM   40  O5  UNL     1       2.063   6.760  14.553  1.00  0.00    -0.391 OA
HETATM   41  H43 UNL     1       2.974   6.645  14.872  1.00  0.00     0.210 HD
ENDBRANCH  24  40
TORSDOF 9
ENDMDL
