MODEL 1
REMARK minimizedAffinity -9.67975903
REMARK  6 active torsions:
REMARK  status: ('A' for Active; 'I' for Inactive)
REMARK    1  A    between atoms: C2_2  and  O2_4 
REMARK    2  A    between atoms: O2_4  and  C3_5 
REMARK    3  A    between atoms: C13_15  and  C14_16 
REMARK    4  A    between atoms: C14_16  and  C16_18 
REMARK    5  A    between atoms: C17_19  and  C18_20 
REMARK    6  A    between atoms: C18_20  and  C20_22 
ROOT
HETATM    1  C3  UNL     1       2.256   7.940  11.216  1.00  0.00     0.135 C 
HETATM    2  C4  UNL     1       1.759   6.588  10.692  1.00  0.00     0.034 C 
HETATM    3  C5  UNL     1       0.260   6.398  10.924  1.00  0.00     0.015 C 
HETATM    4  C6  UNL     1      -0.154   6.578  12.411  1.00  0.00     0.001 C 
HETATM    5  C7  UNL     1       0.431   5.392  13.223  1.00  0.00     0.019 C 
HETATM    6  C8  UNL     1      -1.735   6.663  12.514  1.00  0.00     0.039 C 
HETATM    7  C9  UNL     1      -2.459   5.367  12.948  1.00  0.00     0.010 C 
HETATM    8  C10 UNL     1      -3.981   5.546  13.101  1.00  0.00     0.010 C 
HETATM    9  C11 UNL     1      -4.325   6.701  14.059  1.00  0.00    -0.033 C 
HETATM   10  C12 UNL     1      -3.893   6.323  15.489  1.00  0.00     0.016 C 
HETATM   11  C13 UNL     1      -5.809   7.177  13.992  1.00  0.00     0.001 C 
HETATM   12  C23 UNL     1      -5.746   8.638  14.515  1.00  0.00     0.006 C 
HETATM   13  C24 UNL     1      -4.301   9.121  14.282  1.00  0.00     0.009 C 
HETATM   14  C25 UNL     1      -3.650   7.979  13.504  1.00  0.00     0.036 C 
HETATM   15  C26 UNL     1      -2.125   7.927  13.359  1.00  0.00     0.123 C 
HETATM   16  C27 UNL     1      -1.304   8.074  14.615  1.00  0.00     0.014 C 
HETATM   17  C28 UNL     1       0.017   8.128  14.392  1.00  0.00     0.014 C 
HETATM   18  C29 UNL     1       0.390   7.952  12.937  1.00  0.00     0.124 C 
HETATM   19  C30 UNL     1       1.889   8.136  12.692  1.00  0.00     0.079 C 
HETATM   20  O3  UNL     1      -0.291   8.992  12.183  1.00  0.00    -0.223 OA
HETATM   21  O4  UNL     1      -1.735   9.077  12.556  1.00  0.00    -0.224 OA
ENDROOT
BRANCH  11  22
HETATM   22  C14 UNL     1      -6.935   6.293  14.597  1.00  0.00     0.008 C 
HETATM   23  C15 UNL     1      -6.730   6.171  16.118  1.00  0.00     0.014 C 
BRANCH  22  24
HETATM   24  C16 UNL     1      -7.144   4.945  13.935  1.00  0.00    -0.026 C 
HETATM   25  C17 UNL     1      -6.758   4.574  12.701  1.00  0.00    -0.026 C 
BRANCH  25  26
HETATM   26  C18 UNL     1      -7.003   3.192  12.128  1.00  0.00     0.007 C 
HETATM   27  C19 UNL     1      -7.714   2.332  13.176  1.00  0.00     0.014 C 
BRANCH  26  28
HETATM   28  C20 UNL     1      -5.690   2.569  11.576  1.00  0.00    -0.015 C 
HETATM   29  C21 UNL     1      -5.800   1.085  11.212  1.00  0.00     0.010 C 
HETATM   30  C22 UNL     1      -5.166   3.352  10.366  1.00  0.00     0.010 C 
ENDBRANCH  26  28
ENDBRANCH  25  26
ENDBRANCH  22  24
ENDBRANCH  11  22
BRANCH   1  31
HETATM   31  O2  UNL     1       3.694   8.003  11.128  1.00  0.00    -0.316 OA
BRANCH  31  32
HETATM   32  C2  UNL     1       4.284   7.123  10.274  1.00  0.00     0.255 C 
HETATM   33  C1  UNL     1       5.379   6.384  10.980  1.00  0.00     0.126 C 
HETATM   34  O1  UNL     1       3.994   6.963   9.098  1.00  0.00    -0.266 OA
ENDBRANCH  31  32
ENDBRANCH   1  31
TORSDOF 6
ENDMDL
