MODEL 1
REMARK minimizedAffinity -8.01481342
REMARK CNNscore 0.308064997
REMARK CNNaffinity 7.51560259
REMARK  9 active torsions:
REMARK  status: ('A' for Active; 'I' for Inactive)
REMARK       I    between atoms: N1_1  and  C1_2 
REMARK       I    between atoms: C1_2  and  N2_3 
REMARK    1  A    between atoms: N3_4  and  C2_6 
REMARK    2  A    between atoms: C2_6  and  C3_7 
REMARK    3  A    between atoms: C3_7  and  C4_8 
REMARK    4  A    between atoms: C4_8  and  C5_9 
REMARK    5  A    between atoms: C5_9  and  O1_10 
REMARK    6  A    between atoms: C19_25  and  S1_26 
REMARK    7  A    between atoms: C28_38  and  C29_39 
REMARK    8  A    between atoms: C29_39  and  O6_40 
REMARK    9  A    between atoms: C35_46  and  O7_47 
ROOT
HETATM    1  C2  UNL     1       1.452  52.393 -10.637  1.00  0.00     0.171 C 
HETATM    2  O2  UNL     1       1.810  53.688 -11.256  1.00  0.00    -0.316 OA
HETATM    3  C11 UNL     1       2.075  54.738 -10.418  1.00  0.00     0.072 C 
HETATM    4  C12 UNL     1       3.321  55.349 -10.565  1.00  0.00     0.037 C 
HETATM    5  C13 UNL     1       3.774  56.248  -9.596  1.00  0.00     0.010 C 
HETATM    6  C14 UNL     1       2.972  56.565  -8.491  1.00  0.00    -0.058 C 
HETATM    7  C15 UNL     1       1.660  56.079  -8.462  1.00  0.00     0.010 C 
HETATM    8  C16 UNL     1       1.209  55.162  -9.420  1.00  0.00     0.037 C 
HETATM    9  C17 UNL     1       3.546  57.412  -7.381  1.00  0.00     0.040 C 
HETATM   10  C18 UNL     1       3.143  57.111  -5.926  1.00  0.00     0.028 C 
HETATM   11  C19 UNL     1       3.482  55.736  -5.245  1.00  0.00     0.140 C 
HETATM   12  C20 UNL     1       4.636  54.903  -5.894  1.00  0.00     0.053 C 
HETATM   13  C21 UNL     1       5.990  55.316  -5.239  1.00  0.00    -0.013 C 
HETATM   14  C22 UNL     1       6.476  54.498  -4.278  1.00  0.00    -0.050 C 
HETATM   15  C23 UNL     1       5.444  53.610  -3.608  1.00  0.00     0.043 C 
HETATM   16  C24 UNL     1       5.026  52.578  -4.639  1.00  0.00     0.016 C 
HETATM   17  C25 UNL     1       6.102  51.457  -4.745  1.00  0.00     0.039 C 
HETATM   18  C26 UNL     1       7.550  51.658  -4.175  1.00  0.00     0.123 C 
HETATM   19  C27 UNL     1       7.718  51.252  -2.681  1.00  0.00     0.039 C 
HETATM   20  C28 UNL     1       9.130  50.830  -2.155  1.00  0.00     0.023 C 
HETATM   21  C30 UNL     1       9.683  51.761  -1.036  1.00  0.00     0.101 C 
HETATM   22  C31 UNL     1      10.022  53.093  -1.541  1.00  0.00    -0.101 C 
HETATM   23  C32 UNL     1      10.160  54.103  -2.174  1.00  0.00    -0.066 C 
HETATM   24  C33 UNL     1      10.134  55.076  -3.225  1.00  0.00     0.029 C 
HETATM   25  C34 UNL     1      11.239  55.920  -3.394  1.00  0.00     0.057 C 
HETATM   26  C35 UNL     1      11.323  56.700  -4.540  1.00  0.00     0.067 C 
HETATM   27  C36 UNL     1      10.353  56.611  -5.529  1.00  0.00     0.037 C 
HETATM   28  C37 UNL     1       9.248  55.766  -5.351  1.00  0.00     0.014 C 
HETATM   29  C38 UNL     1       9.071  55.038  -4.164  1.00  0.00    -0.006 C 
HETATM   30  C39 UNL     1       7.885  54.110  -3.908  1.00  0.00     0.185 C 
HETATM   31  O8  UNL     1       8.204  52.867  -4.567  1.00  0.00    -0.371 OA
HETATM   32  C40 UNL     1       4.793  53.315  -6.006  1.00  0.00     0.104 A 
HETATM   33  C41 UNL     1       3.973  52.652  -7.100  1.00  0.00     0.082 A 
HETATM   34  C42 UNL     1       2.629  52.351  -6.945  1.00  0.00     0.010 C 
HETATM   35  C43 UNL     1       1.818  52.173  -8.074  1.00  0.00     0.011 C 
HETATM   36  C44 UNL     1       2.346  52.168  -9.379  1.00  0.00    -0.003 C 
HETATM   37  C45 UNL     1       3.744  52.216  -9.495  1.00  0.00     0.011 C 
HETATM   38  C46 UNL     1       4.539  52.484  -8.378  1.00  0.00     0.010 C 
HETATM   39 NA1  UNL     1       4.311  53.288  -7.759  1.00  0.00    -0.398 Na
ATOM     40  HA1 UNL     1       4.358  53.655  -8.709  1.00  0.00     0.155 HD
ENDROOT
BRANCH   1  41
HETATM   41  N3  UNL     1       0.001  52.251 -10.417  1.00  0.00    -0.331 N 
HETATM   42  C1  UNL     1      -0.904  52.538 -11.264  1.00  0.00     0.146 C 
HETATM   43  N1  UNL     1      -0.844  52.985 -12.536  1.00  0.00    -0.376 N 
HETATM   44  N2  UNL     1      -2.205  52.363 -10.924  1.00  0.00    -0.274 NA
HETATM   45  H1  UNL     1       0.071  53.215 -12.900  1.00  0.00     0.158 HD
HETATM   46  H2  UNL     1      -1.563  53.654 -12.782  1.00  0.00     0.158 HD
HETATM   47  H3  UNL     1      -2.685  51.821 -11.633  1.00  0.00     0.127 HD
HETATM   48  H4  UNL     1      -2.250  51.851 -10.045  1.00  0.00     0.127 HD
ATOM     49  H3  UNL     1      -0.303  51.894  -9.510  1.00  0.00     0.165 HD
ENDBRANCH   1  41
BRANCH   1  50
HETATM   50  C3  UNL     1       1.855  51.374 -11.758  1.00  0.00     0.070 C 
BRANCH  50  51
HETATM   51  C4  UNL     1       2.720  51.887 -12.938  1.00  0.00     0.043 C 
BRANCH  51  52
HETATM   52  C5  UNL     1       3.051  50.916 -14.106  1.00  0.00     0.058 C 
HETATM   53  C6  UNL     1       3.861  51.567 -15.244  1.00  0.00     0.038 C 
HETATM   54  C7  UNL     1       3.113  52.687 -15.971  1.00  0.00     0.003 C 
HETATM   55  C8  UNL     1       1.602  52.468 -16.040  1.00  0.00     0.000 C 
HETATM   56  C9  UNL     1       1.248  50.992 -15.982  1.00  0.00     0.003 C 
HETATM   57  C10 UNL     1       1.759  50.305 -14.713  1.00  0.00     0.038 C 
BRANCH  52  58
HETATM   58  O1  UNL     1       3.786  49.807 -13.578  1.00  0.00    -0.390 OA
HETATM   59  H9  UNL     1       4.703  50.127 -13.444  1.00  0.00     0.210 HD
ENDBRANCH  52  58
ENDBRANCH  51  52
ENDBRANCH  50  51
ENDBRANCH   1  50
BRANCH  11  60
HETATM   60  S1  UNL     1       1.967  54.961  -4.643  1.00  0.00     0.106 S 
HETATM   61  O3  UNL     1       2.476  53.825  -3.870  1.00  0.00    -0.595 OA
HETATM   62  O4  UNL     1       1.298  55.968  -3.827  1.00  0.00    -0.595 OA
HETATM   63  O5  UNL     1       1.225  54.551  -5.830  1.00  0.00    -0.595 OA
ENDBRANCH  11  60
BRANCH  20  64
HETATM   64  C29 UNL     1      10.178  50.538  -3.237  1.00  0.00     0.169 C 
BRANCH  64  65
HETATM   65  O6  UNL     1      11.339  49.951  -2.653  1.00  0.00    -0.400 OA
HETATM   66  H42 UNL     1      11.110  49.038  -2.407  1.00  0.00     0.209 HD
ENDBRANCH  64  65
ENDBRANCH  20  64
BRANCH  26  67
HETATM   67  O7  UNL     1      12.388  57.526  -4.761  1.00  0.00    -0.361 OA
HETATM   68  H46 UNL     1      12.955  57.497  -3.977  1.00  0.00     0.217 HD
ENDBRANCH  26  67
TORSDOF 9
ENDMDL
