MODEL 1
REMARK minimizedAffinity -8.21455002
REMARK CNNscore 0.431202233
REMARK CNNaffinity 7.200109
REMARK  12 active torsions:
REMARK  status: ('A' for Active; 'I' for Inactive)
REMARK    1  A    between atoms: C3_3  and  O1_4 
REMARK    2  A    between atoms: N1_14  and  O2_16 
REMARK    3  A    between atoms: O2_16  and  C13_17 
REMARK    4  A    between atoms: C13_17  and  C14_18 
REMARK       I    between atoms: C14_18  and  N2_20 
REMARK    5  A    between atoms: N2_20  and  C15_21 
REMARK    6  A    between atoms: C15_21  and  C16_22 
REMARK    7  A    between atoms: C15_21  and  C23_33 
REMARK       I    between atoms: C16_22  and  N3_24 
REMARK    8  A    between atoms: N3_24  and  C17_25 
REMARK    9  A    between atoms: C17_25  and  C18_26 
REMARK   10  A    between atoms: C17_25  and  C19_29 
REMARK   11  A    between atoms: C18_26  and  O6_28 
REMARK   12  A    between atoms: C19_29  and  C21_31 
ROOT
HETATM    1  C1  UNL     1     -10.313   6.916  14.667  1.00  0.00     0.015 C 
HETATM    2  C2  UNL     1      -9.265   6.339  14.551  1.00  0.00    -0.078 C 
HETATM    3  C3  UNL     1      -7.995   5.610  14.432  1.00  0.00     0.128 C 
HETATM    4  C4  UNL     1      -7.990   4.614  13.249  1.00  0.00     0.052 C 
HETATM    5  C5  UNL     1      -6.514   4.507  12.796  1.00  0.00     0.010 C 
HETATM    6  C6  UNL     1      -5.742   5.424  13.752  1.00  0.00     0.002 C 
HETATM    7  C7  UNL     1      -4.359   5.935  13.292  1.00  0.00    -0.004 C 
HETATM    8  C8  UNL     1      -3.372   4.763  13.439  1.00  0.00     0.010 C 
HETATM    9  C9  UNL     1      -1.941   5.156  13.149  1.00  0.00     0.035 C 
HETATM   10  C10 UNL     1      -1.499   6.256  14.072  1.00  0.00    -0.069 C 
HETATM   11  C11 UNL     1      -0.365   6.111  14.780  1.00  0.00     0.030 C 
HETATM   12  C12 UNL     1       0.221   7.233  15.554  1.00  0.00     0.032 C 
HETATM   13  N1  UNL     1       1.314   6.998  16.230  1.00  0.00    -0.271 N 
ATOM     14  H1  UNL     1       1.767   6.087  16.293  1.00  0.00     0.194 HD
HETATM   15  C26 UNL     1      -0.446   8.590  15.446  1.00  0.00     0.060 C 
HETATM   16  C27 UNL     1      -1.949   8.408  15.288  1.00  0.00     0.020 C 
HETATM   17  C28 UNL     1      -2.358   7.515  14.080  1.00  0.00    -0.016 C 
HETATM   18  C29 UNL     1      -2.042   8.283  12.769  1.00  0.00     0.020 C 
HETATM   19  C30 UNL     1      -3.920   7.218  14.087  1.00  0.00     0.002 C 
HETATM   20  C31 UNL     1      -4.646   7.263  15.454  1.00  0.00     0.007 C 
HETATM   21  C32 UNL     1      -6.186   7.346  15.308  1.00  0.00     0.014 C 
HETATM   22  C33 UNL     1      -6.755   6.518  14.130  1.00  0.00     0.003 C 
HETATM   23  C34 UNL     1      -7.056   7.480  12.942  1.00  0.00     0.020 C 
ENDROOT
BRANCH   3  24
HETATM   24  O1  UNL     1      -7.849   4.805  15.607  1.00  0.00    -0.377 OA
HETATM   25  H2  UNL     1      -7.217   5.220  16.210  1.00  0.00     0.211 HD
ENDBRANCH   3  24
BRANCH  13  26
HETATM   26  O2  UNL     1       1.784   8.160  16.856  1.00  0.00    -0.271 OA
BRANCH  26  27
HETATM   27  C13 UNL     1       2.676   8.835  15.974  1.00  0.00     0.303 C 
BRANCH  27  28
HETATM   28  C14 UNL     1       3.010  10.212  16.535  1.00  0.00     0.244 C 
HETATM   29  O3  UNL     1       3.945  10.893  16.120  1.00  0.00    -0.271 OA
HETATM   30  N2  UNL     1       2.212  10.602  17.594  1.00  0.00    -0.346 N 
HETATM   31  H16 UNL     1       1.746   9.849  18.096  1.00  0.00     0.163 HD
BRANCH  30  32
HETATM   32  C15 UNL     1       2.566  11.783  18.377  1.00  0.00     0.180 C 
BRANCH  32  33
HETATM   33  C16 UNL     1       3.552  11.283  19.455  1.00  0.00     0.241 C 
HETATM   34  O4  UNL     1       3.512  10.139  19.909  1.00  0.00    -0.271 OA
HETATM   35  N3  UNL     1       4.489  12.212  19.846  1.00  0.00    -0.344 N 
HETATM   36  H18 UNL     1       4.624  13.038  19.269  1.00  0.00     0.163 HD
BRANCH  35  37
HETATM   37  C17 UNL     1       5.565  11.893  20.792  1.00  0.00     0.186 C 
BRANCH  37  38
HETATM   38  C18 UNL     1       6.867  12.404  20.179  1.00  0.00     0.163 C 
HETATM   39  O5  UNL     1       7.799  11.710  19.796  1.00  0.00    -0.648 OA
BRANCH  38  40
HETATM   40  O6  UNL     1       6.931  13.743  20.076  1.00  0.00    -0.775 OA
HETATM   41  H20 UNL     1       7.807  13.920  19.678  1.00  0.00     0.167 HD
ENDBRANCH  38  40
ENDBRANCH  37  38
BRANCH  37  42
HETATM   42  C19 UNL     1       5.277  12.491  22.189  1.00  0.00     0.014 C 
HETATM   43  C20 UNL     1       6.463  12.319  23.154  1.00  0.00     0.012 C 
BRANCH  42  44
HETATM   44  C21 UNL     1       4.006  11.941  22.867  1.00  0.00     0.002 C 
HETATM   45  C22 UNL     1       2.887  12.963  22.991  1.00  0.00     0.005 C 
ENDBRANCH  42  44
ENDBRANCH  37  42
ENDBRANCH  35  37
ENDBRANCH  32  33
BRANCH  32  46
HETATM   46  C23 UNL     1       1.325  12.433  19.025  1.00  0.00     0.009 C 
HETATM   47  C24 UNL     1       0.212  12.672  17.997  1.00  0.00     0.012 C 
HETATM   48  C25 UNL     1       0.774  11.568  20.167  1.00  0.00     0.012 C 
ENDBRANCH  32  46
ENDBRANCH  30  32
ENDBRANCH  27  28
ENDBRANCH  26  27
ENDBRANCH  13  26
TORSDOF 12
ENDMDL
