MODEL 1
REMARK minimizedAffinity -7.62066603
REMARK CNNscore 0.464209229
REMARK CNNaffinity 6.21965027
REMARK  13 active torsions:
REMARK  status: ('A' for Active; 'I' for Inactive)
REMARK    1  A    between atoms: C3_3  and  O1_4 
REMARK    2  A    between atoms: N1_14  and  O2_16 
REMARK    3  A    between atoms: O2_16  and  C13_17 
REMARK    4  A    between atoms: C13_17  and  C14_18 
REMARK       I    between atoms: C14_18  and  N2_20 
REMARK    5  A    between atoms: N2_20  and  C15_21 
REMARK    6  A    between atoms: C15_21  and  C16_22 
REMARK    7  A    between atoms: C15_21  and  C21_33 
REMARK       I    between atoms: C16_22  and  N3_24 
REMARK    8  A    between atoms: N3_24  and  C17_25 
REMARK    9  A    between atoms: C17_25  and  C18_26 
REMARK   10  A    between atoms: C17_25  and  C20_30 
REMARK   11  A    between atoms: C18_26  and  C19_27 
REMARK   12  A    between atoms: C19_27  and  O6_29 
REMARK   13  A    between atoms: C20_30  and  O8_32 
ROOT
HETATM    1  C1  UNL     1       0.220  53.097 -20.574  1.00  0.00     0.015 C 
HETATM    2  C2  UNL     1      -0.405  52.125 -20.907  1.00  0.00    -0.078 C 
HETATM    3  C3  UNL     1      -1.148  50.923 -21.326  1.00  0.00     0.128 C 
HETATM    4  C4  UNL     1      -0.314  49.652 -21.160  1.00  0.00     0.052 C 
HETATM    5  C5  UNL     1      -1.348  48.542 -21.315  1.00  0.00     0.010 C 
HETATM    6  C6  UNL     1      -2.617  49.067 -20.614  1.00  0.00     0.002 C 
HETATM    7  C7  UNL     1      -3.917  48.626 -21.322  1.00  0.00    -0.004 C 
HETATM    8  C8  UNL     1      -4.060  47.083 -21.306  1.00  0.00     0.010 C 
HETATM    9  C9  UNL     1      -5.488  46.579 -21.074  1.00  0.00     0.035 C 
HETATM   10  C10 UNL     1      -6.471  47.427 -21.832  1.00  0.00    -0.069 C 
HETATM   11  C11 UNL     1      -7.229  46.899 -22.811  1.00  0.00     0.030 C 
HETATM   12  C12 UNL     1      -8.127  47.764 -23.627  1.00  0.00     0.032 C 
HETATM   13  N1  UNL     1      -9.117  47.354 -24.361  1.00  0.00    -0.271 N 
ATOM     14  H1  UNL     1      -9.707  47.970 -24.919  1.00  0.00     0.194 HD
HETATM   15  C24 UNL     1      -7.894  49.266 -23.589  1.00  0.00     0.060 C 
HETATM   16  C25 UNL     1      -6.640  49.676 -22.820  1.00  0.00     0.020 C 
HETATM   17  C26 UNL     1      -6.484  48.915 -21.479  1.00  0.00    -0.016 C 
HETATM   18  C27 UNL     1      -7.686  49.194 -20.543  1.00  0.00     0.020 C 
HETATM   19  C28 UNL     1      -5.164  49.307 -20.706  1.00  0.00     0.002 C 
HETATM   20  C29 UNL     1      -4.989  50.827 -20.476  1.00  0.00     0.007 C 
HETATM   21  C30 UNL     1      -3.674  51.380 -21.019  1.00  0.00     0.014 C 
HETATM   22  C31 UNL     1      -2.438  50.619 -20.490  1.00  0.00     0.003 C 
HETATM   23  C32 UNL     1      -2.243  50.954 -18.984  1.00  0.00     0.020 C 
ENDROOT
BRANCH   3  24
HETATM   24  O1  UNL     1      -1.467  51.033 -22.717  1.00  0.00    -0.377 OA
HETATM   25  H2  UNL     1      -0.801  51.611 -23.132  1.00  0.00     0.211 HD
ENDBRANCH   3  24
BRANCH  13  26
HETATM   26  O2  UNL     1      -9.280  45.960 -24.294  1.00  0.00    -0.271 OA
BRANCH  26  27
HETATM   27  C13 UNL     1      -9.499  45.467 -25.611  1.00  0.00     0.303 C 
BRANCH  27  28
HETATM   28  C14 UNL     1     -10.770  46.102 -26.155  1.00  0.00     0.244 C 
HETATM   29  O3  UNL     1     -10.796  47.266 -26.552  1.00  0.00    -0.271 OA
HETATM   30  N2  UNL     1     -11.884  45.275 -26.120  1.00  0.00    -0.346 N 
HETATM   31  H16 UNL     1     -11.698  44.291 -25.981  1.00  0.00     0.163 HD
BRANCH  30  32
HETATM   32  C15 UNL     1     -13.143  45.608 -26.806  1.00  0.00     0.180 C 
BRANCH  32  33
HETATM   33  C16 UNL     1     -14.294  45.410 -25.769  1.00  0.00     0.241 C 
HETATM   34  O4  UNL     1     -14.129  44.843 -24.687  1.00  0.00    -0.271 OA
HETATM   35  N3  UNL     1     -15.510  45.986 -26.093  1.00  0.00    -0.344 N 
HETATM   36  H18 UNL     1     -15.693  46.186 -27.064  1.00  0.00     0.163 HD
BRANCH  35  37
HETATM   37  C17 UNL     1     -16.682  45.734 -25.240  1.00  0.00     0.192 C 
BRANCH  37  38
HETATM   38  C18 UNL     1     -17.262  47.039 -24.700  1.00  0.00     0.146 C 
BRANCH  38  39
HETATM   39  C19 UNL     1     -18.662  46.840 -24.195  1.00  0.00     0.141 C 
HETATM   40  O5  UNL     1     -19.701  47.092 -24.777  1.00  0.00    -0.650 OA
BRANCH  39  41
HETATM   41  O6  UNL     1     -18.680  46.265 -22.978  1.00  0.00    -0.776 OA
HETATM   42  H22 UNL     1     -19.632  46.179 -22.759  1.00  0.00     0.167 HD
ENDBRANCH  39  41
ENDBRANCH  38  39
ENDBRANCH  37  38
BRANCH  37  43
HETATM   43  C20 UNL     1     -17.792  45.001 -26.006  1.00  0.00     0.164 C 
HETATM   44  O7  UNL     1     -18.180  45.271 -27.134  1.00  0.00    -0.648 OA
BRANCH  43  45
HETATM   45  O8  UNL     1     -18.296  43.931 -25.359  1.00  0.00    -0.775 OA
HETATM   46  H23 UNL     1     -19.023  43.618 -25.940  1.00  0.00     0.167 HD
ENDBRANCH  43  45
ENDBRANCH  37  43
ENDBRANCH  35  37
ENDBRANCH  32  33
BRANCH  32  47
HETATM   47  C21 UNL     1     -13.313  44.920 -28.190  1.00  0.00     0.009 C 
HETATM   48  C22 UNL     1     -12.379  45.550 -29.237  1.00  0.00     0.012 C 
HETATM   49  C23 UNL     1     -14.740  44.985 -28.747  1.00  0.00     0.012 C 
ENDBRANCH  32  47
ENDBRANCH  30  32
ENDBRANCH  27  28
ENDBRANCH  26  27
ENDBRANCH  13  26
TORSDOF 13
ENDMDL
