MODEL 1
REMARK minimizedAffinity -8.44228268
REMARK CNNscore 0.299342453
REMARK CNNaffinity 7.44486189
REMARK  13 active torsions:
REMARK  status: ('A' for Active; 'I' for Inactive)
REMARK    1  A    between atoms: O1_2  and  C2_3 
REMARK    2  A    between atoms: C12_14  and  C13_15 
REMARK    3  A    between atoms: C13_15  and  C15_17 
REMARK    4  A    between atoms: C15_17  and  C16_18 
REMARK    5  A    between atoms: C17_19  and  C18_20 
REMARK    6  A    between atoms: C18_20  and  O3_23 
REMARK    7  A    between atoms: C29_32  and  O4_33 
REMARK    8  A    between atoms: O4_33  and  C30_34 
REMARK    9  A    between atoms: C31_36  and  C32_37 
REMARK   10  A    between atoms: C32_37  and  O6_38 
REMARK   11  A    between atoms: C33_39  and  O7_40 
REMARK   12  A    between atoms: C34_41  and  O8_42 
REMARK   13  A    between atoms: C35_43  and  O9_44 
ROOT
HETATM    1  C2  UNL     1      -2.793   5.777  13.350  1.00  0.00     0.270 C 
HETATM    2  O2  UNL     1      -1.623   6.256  14.062  1.00  0.00    -0.344 OA
HETATM    3  C3  UNL     1      -2.022   7.396  14.857  1.00  0.00     0.095 C 
HETATM    4  C4  UNL     1      -2.510   6.784  16.165  1.00  0.00     0.008 C 
HETATM    5  C5  UNL     1      -3.731   6.243  16.289  1.00  0.00    -0.021 C 
HETATM    6  C6  UNL     1      -4.673   6.154  15.109  1.00  0.00     0.030 C 
HETATM    7  C7  UNL     1      -4.003   6.682  13.767  1.00  0.00     0.024 C 
HETATM    8  C8  UNL     1      -5.031   6.739  12.601  1.00  0.00     0.016 C 
HETATM    9  C9  UNL     1      -6.447   7.243  12.942  1.00  0.00     0.011 C 
HETATM   10  C10 UNL     1      -7.039   6.528  14.169  1.00  0.00    -0.032 C 
HETATM   11  C11 UNL     1      -7.224   5.016  13.815  1.00  0.00     0.016 C 
HETATM   12  C12 UNL     1      -8.388   7.067  14.752  1.00  0.00    -0.002 C 
HETATM   13  C22 UNL     1      -8.340   6.537  16.228  1.00  0.00     0.006 C 
HETATM   14  C23 UNL     1      -6.878   6.158  16.537  1.00  0.00     0.011 C 
HETATM   15  C24 UNL     1      -6.072   6.790  15.389  1.00  0.00    -0.029 C 
HETATM   16  C25 UNL     1      -5.938   8.303  15.783  1.00  0.00     0.016 C 
HETATM   17  C26 UNL     1      -3.204   7.980  14.049  1.00  0.00     0.039 C 
HETATM   18  C27 UNL     1      -2.767   8.740  12.782  1.00  0.00     0.011 C 
HETATM   19  C28 UNL     1      -1.684   9.768  13.065  1.00  0.00     0.033 C 
HETATM   20  C29 UNL     1      -0.467   9.143  13.750  1.00  0.00     0.136 C 
HETATM   21  C36 UNL     1      -0.847   8.413  15.076  1.00  0.00     0.014 C 
HETATM   22  C37 UNL     1       0.412   7.693  15.628  1.00  0.00     0.021 C 
HETATM   23  C38 UNL     1      -1.253   9.497  16.114  1.00  0.00     0.021 C 
ENDROOT
BRANCH  20  24
HETATM   24  O4  UNL     1       0.108   8.214  12.827  1.00  0.00    -0.352 OA
BRANCH  24  25
HETATM   25  C30 UNL     1       1.335   8.676  12.248  1.00  0.00     0.292 C 
HETATM   26  O5  UNL     1       1.121   8.920  10.861  1.00  0.00    -0.348 OA
HETATM   27  C31 UNL     1       1.512   7.864   9.977  1.00  0.00     0.179 C 
HETATM   28  C33 UNL     1       1.243   6.476  10.581  1.00  0.00     0.180 C 
HETATM   29  C34 UNL     1       2.024   6.285  11.893  1.00  0.00     0.183 C 
HETATM   30  C35 UNL     1       2.407   7.614  12.551  1.00  0.00     0.204 C 
BRANCH  27  31
HETATM   31  C32 UNL     1       0.758   8.048   8.649  1.00  0.00     0.198 C 
BRANCH  31  32
HETATM   32  O6  UNL     1      -0.166   9.127   8.673  1.00  0.00    -0.398 OA
HETATM   33  H50 UNL     1       0.166   9.757   9.350  1.00  0.00     0.209 HD
ENDBRANCH  31  32
ENDBRANCH  27  31
BRANCH  28  34
HETATM   34  O7  UNL     1       1.605   5.432   9.674  1.00  0.00    -0.390 OA
HETATM   35  H52 UNL     1       1.308   4.602  10.098  1.00  0.00     0.210 HD
ENDBRANCH  28  34
BRANCH  29  36
HETATM   36  O8  UNL     1       1.221   5.493  12.793  1.00  0.00    -0.390 OA
HETATM   37  H54 UNL     1       0.448   6.057  13.007  1.00  0.00     0.210 HD
ENDBRANCH  29  36
BRANCH  30  38
HETATM   38  O9  UNL     1       3.688   8.058  12.094  1.00  0.00    -0.388 OA
HETATM   39  H56 UNL     1       4.332   7.357  12.297  1.00  0.00     0.210 HD
ENDBRANCH  30  38
ENDBRANCH  24  25
ENDBRANCH  20  24
BRANCH   1  40
HETATM   40  O1  UNL     1      -3.056   4.397  13.567  1.00  0.00    -0.365 OA
HETATM   41  C1  UNL     1      -3.149   3.672  12.339  1.00  0.00     0.204 C 
ENDBRANCH   1  40
BRANCH  12  42
HETATM   42  C13 UNL     1      -9.746   6.731  14.068  1.00  0.00    -0.010 C 
HETATM   43  C14 UNL     1      -9.564   6.170  12.655  1.00  0.00     0.010 C 
BRANCH  42  44
HETATM   44  C15 UNL     1     -10.638   8.002  14.023  1.00  0.00     0.031 C 
BRANCH  44  45
HETATM   45  C16 UNL     1     -11.004   8.525  15.388  1.00  0.00    -0.027 C 
HETATM   46  C17 UNL     1     -10.963   9.830  15.709  1.00  0.00     0.006 C 
BRANCH  46  47
HETATM   47  C18 UNL     1     -11.288  10.481  17.041  1.00  0.00     0.070 C 
HETATM   48  C19 UNL     1     -11.020   9.484  18.182  1.00  0.00     0.050 C 
HETATM   49  C20 UNL     1     -10.469  11.753  17.313  1.00  0.00     0.050 C 
BRANCH  47  50
HETATM   50  O3  UNL     1     -12.654  10.927  17.029  1.00  0.00    -0.382 OA
HETATM   51  C21 UNL     1     -13.481  10.531  18.108  1.00  0.00     0.202 C 
ENDBRANCH  47  50
ENDBRANCH  46  47
ENDBRANCH  44  45
ENDBRANCH  42  44
ENDBRANCH  12  42
TORSDOF 13
ENDMDL
