MODEL 1
REMARK minimizedAffinity -8.6777792
REMARK CNNscore 0.711115897
REMARK CNNaffinity 7.0171566
REMARK  13 active torsions:
REMARK  status: ('A' for Active; 'I' for Inactive)
REMARK    1  A    between atoms: C3_3  and  C4_4 
REMARK    2  A    between atoms: C4_4  and  N1_5 
REMARK    3  A    between atoms: N1_5  and  C5_6 
REMARK    4  A    between atoms: C5_6  and  C6_7 
REMARK    5  A    between atoms: C6_7  and  O1_9 
REMARK    6  A    between atoms: C8_10  and  C9_11 
REMARK    7  A    between atoms: C9_11  and  O2_12 
REMARK    8  A    between atoms: C9_11  and  C10_13 
REMARK    9  A    between atoms: C10_13  and  O3_15 
REMARK   10  A    between atoms: C10_13  and  C12_16 
REMARK   11  A    between atoms: C19_24  and  C20_25 
REMARK   12  A    between atoms: C42_50  and  C43_51 
REMARK   13  A    between atoms: C43_51  and  O8_52 
ROOT
HETATM    1  C12 UNL     1     -12.707  45.382 -27.251  1.00  0.00     0.034 C 
HETATM    2  C13 UNL     1     -12.974  46.777 -26.612  1.00  0.00     0.012 C 
HETATM    3  C14 UNL     1     -14.420  46.754 -26.086  1.00  0.00     0.044 C 
HETATM    4  C15 UNL     1     -14.766  45.261 -25.980  1.00  0.00     0.093 C 
HETATM    5  O4  UNL     1     -14.050  44.578 -24.921  1.00  0.00    -0.363 OA
HETATM    6  C16 UNL     1     -13.755  45.219 -23.688  1.00  0.00     0.263 C 
HETATM    7  C17 UNL     1     -14.727  44.882 -22.644  1.00  0.00    -0.080 C 
HETATM    8  C18 UNL     1     -15.454  44.603 -21.727  1.00  0.00    -0.093 C 
HETATM    9  C19 UNL     1     -16.310  44.238 -20.574  1.00  0.00     0.121 C 
HETATM   10  C26 UNL     1     -17.150  42.959 -20.821  1.00  0.00     0.190 C 
HETATM   11  O5  UNL     1     -18.282  43.099 -21.689  1.00  0.00    -0.384 OA
HETATM   12  C27 UNL     1     -17.992  43.078 -23.085  1.00  0.00     0.122 C 
HETATM   13  C28 UNL     1     -17.686  41.664 -23.590  1.00  0.00     0.033 C 
HETATM   14  C29 UNL     1     -17.988  41.466 -25.085  1.00  0.00     0.013 C 
HETATM   15  C30 UNL     1     -17.921  42.775 -25.929  1.00  0.00    -0.026 C 
HETATM   16  C31 UNL     1     -18.442  42.429 -27.351  1.00  0.00     0.016 C 
HETATM   17  C32 UNL     1     -18.942  43.790 -25.324  1.00  0.00     0.071 C 
HETATM   18  C33 UNL     1     -19.196  43.649 -23.816  1.00  0.00     0.045 C 
HETATM   19  C34 UNL     1     -18.633  45.235 -25.652  1.00  0.00     0.154 C 
HETATM   20  O6  UNL     1     -19.520  46.079 -25.763  1.00  0.00    -0.293 OA
HETATM   21  C35 UNL     1     -17.232  45.670 -25.773  1.00  0.00     0.057 C 
HETATM   22  C36 UNL     1     -16.219  44.805 -25.899  1.00  0.00    -0.036 C 
HETATM   23  C37 UNL     1     -16.411  43.290 -25.967  1.00  0.00     0.026 C 
HETATM   24  C38 UNL     1     -15.589  42.660 -27.134  1.00  0.00     0.011 C 
HETATM   25  C39 UNL     1     -14.158  43.196 -27.309  1.00  0.00     0.014 C 
HETATM   26  C40 UNL     1     -14.138  44.742 -27.339  1.00  0.00    -0.002 C 
HETATM   27  C41 UNL     1     -14.912  45.241 -28.589  1.00  0.00     0.019 C 
ENDROOT
BRANCH   1  28
HETATM   28  C10 UNL     1     -11.694  45.360 -28.452  1.00  0.00     0.087 C 
HETATM   29  C11 UNL     1     -12.285  45.810 -29.801  1.00  0.00     0.049 C 
BRANCH  28  30
HETATM   30  C9  UNL     1     -10.454  46.258 -28.088  1.00  0.00     0.181 C 
BRANCH  30  31
HETATM   31  C8  UNL     1      -9.212  46.107 -28.992  1.00  0.00     0.160 C 
HETATM   32  C3  UNL     1      -7.799  46.139 -28.396  1.00  0.00     0.051 C 
HETATM   33  C2  UNL     1      -6.965  46.394 -29.669  1.00  0.00     0.021 C 
HETATM   34  C1  UNL     1      -6.534  45.084 -30.337  1.00  0.00     0.013 C 
HETATM   35  C42 UNL     1      -7.905  47.195 -30.584  1.00  0.00     0.149 C 
HETATM   36  O7  UNL     1      -9.213  47.187 -29.962  1.00  0.00    -0.375 OA
BRANCH  32  37
HETATM   37  C4  UNL     1      -7.582  47.253 -27.344  1.00  0.00     0.277 C 
BRANCH  37  38
HETATM   38  N1  UNL     1      -6.473  48.173 -27.629  1.00  0.00     0.086 N 
HETATM   39  H8  UNL     1      -6.823  49.131 -27.641  1.00  0.00     0.315 HD
BRANCH  38  40
HETATM   40  C5  UNL     1      -5.314  48.056 -26.750  1.00  0.00     0.300 C 
BRANCH  40  41
HETATM   41  C6  UNL     1      -3.984  48.293 -27.493  1.00  0.00     0.142 C 
HETATM   42  C7  UNL     1      -2.865  48.728 -26.557  1.00  0.00     0.041 C 
BRANCH  41  43
HETATM   43  O1  UNL     1      -4.159  49.319 -28.472  1.00  0.00    -0.394 OA
HETATM   44  H15 UNL     1      -4.737  48.961 -29.166  1.00  0.00     0.210 HD
ENDBRANCH  41  43
ENDBRANCH  40  41
ENDBRANCH  38  40
ENDBRANCH  37  38
ENDBRANCH  32  37
BRANCH  35  45
HETATM   45  C43 UNL     1      -7.478  48.650 -30.789  1.00  0.00     0.196 C 
BRANCH  45  46
HETATM   46  O8  UNL     1      -6.086  48.783 -30.498  1.00  0.00    -0.398 OA
HETATM   47  H61 UNL     1      -5.651  48.035 -30.952  1.00  0.00     0.209 HD
ENDBRANCH  45  46
ENDBRANCH  35  45
ENDBRANCH  30  31
BRANCH  30  48
HETATM   48  O2  UNL     1     -10.827  47.650 -28.121  1.00  0.00    -0.390 OA
HETATM   49  H18 UNL     1      -9.984  48.141 -28.035  1.00  0.00     0.210 HD
ENDBRANCH  30  48
ENDBRANCH  28  30
BRANCH  28  50
HETATM   50  O3  UNL     1     -11.225  44.018 -28.625  1.00  0.00    -0.387 OA
HETATM   51  H22 UNL     1     -11.917  43.513 -29.084  1.00  0.00     0.210 HD
ENDBRANCH  28  50
ENDBRANCH   1  28
BRANCH   9  52
HETATM   52  C20 UNL     1     -17.122  45.413 -20.048  1.00  0.00    -0.040 A 
HETATM   53  C21 UNL     1     -18.523  45.367 -19.977  1.00  0.00     0.008 A 
HETATM   54  C22 UNL     1     -19.252  46.458 -19.499  1.00  0.00     0.001 A 
HETATM   55  C23 UNL     1     -18.592  47.612 -19.085  1.00  0.00     0.000 A 
HETATM   56  C24 UNL     1     -17.200  47.673 -19.142  1.00  0.00     0.001 A 
HETATM   57  C25 UNL     1     -16.470  46.582 -19.619  1.00  0.00     0.008 A 
ENDBRANCH   9  52
TORSDOF 13
ENDMDL
