MODEL 1
REMARK minimizedAffinity -8.35905743
REMARK  18 active torsions:
REMARK  status: ('A' for Active; 'I' for Inactive)
REMARK    1  A    between atoms: C4_4  and  C5_5 
REMARK    2  A    between atoms: C5_5  and  C6_6 
REMARK    3  A    between atoms: C6_6  and  C7_7 
REMARK    4  A    between atoms: C9_9  and  C10_10 
REMARK    5  A    between atoms: C10_10  and  O1_11 
REMARK    6  A    between atoms: C10_10  and  C11_12 
REMARK    7  A    between atoms: C11_12  and  C12_13 
REMARK    8  A    between atoms: C14_15  and  C15_16 
REMARK    9  A    between atoms: C15_16  and  C16_17 
REMARK   10  A    between atoms: C16_17  and  C17_18 
REMARK   11  A    between atoms: C17_18  and  C18_19 
REMARK   12  A    between atoms: C18_19  and  O2_20 
REMARK   13  A    between atoms: C19_21  and  C20_22 
REMARK   14  A    between atoms: C20_22  and  C21_23 
REMARK   15  A    between atoms: C21_23  and  C22_24 
REMARK   16  A    between atoms: C22_24  and  O3_25 
REMARK   17  A    between atoms: C24_27  and  C26_29 
REMARK   18  A    between atoms: C29_33  and  O5_35 
ROOT
HETATM    1  C17 UNL     1      -6.174  47.949 -30.558  1.00  0.00     0.019 C 
HETATM    2  C19 UNL     1      -5.777  46.509 -31.159  1.00  0.00     0.029 C 
HETATM    3  C23 UNL     1      -6.773  45.999 -32.219  1.00  0.00    -0.066 C 
HETATM    4  C24 UNL     1      -7.268  44.735 -32.323  1.00  0.00    -0.021 C 
HETATM    5  C25 UNL     1      -8.248  44.289 -33.381  1.00  0.00     0.052 C 
HETATM    6  C27 UNL     1      -7.299  47.118 -33.085  1.00  0.00     0.038 C 
HETATM    7  C28 UNL     1      -8.115  48.111 -32.252  1.00  0.00     0.042 C 
HETATM    8  C29 UNL     1      -7.731  48.189 -30.748  1.00  0.00     0.065 C 
HETATM    9  C30 UNL     1      -8.635  47.256 -29.923  1.00  0.00     0.047 C 
ENDROOT
BRANCH   1  10
HETATM   10  C16 UNL     1      -5.725  48.091 -29.046  1.00  0.00     0.019 C 
BRANCH  10  11
HETATM   11  C15 UNL     1      -6.508  47.338 -27.958  1.00  0.00     0.028 C 
BRANCH  11  12
HETATM   12  C14 UNL     1      -6.036  47.735 -26.584  1.00  0.00    -0.024 C 
HETATM   13  C12 UNL     1      -4.843  48.252 -26.228  1.00  0.00    -0.085 C 
HETATM   14  C13 UNL     1      -3.692  48.486 -27.169  1.00  0.00     0.043 C 
BRANCH  13  15
HETATM   15  C11 UNL     1      -4.579  48.634 -24.775  1.00  0.00     0.069 C 
BRANCH  15  16
HETATM   16  C10 UNL     1      -4.287  50.136 -24.560  1.00  0.00     0.145 C 
BRANCH  16  17
HETATM   17  C9  UNL     1      -3.504  50.356 -23.293  1.00  0.00     0.007 C 
HETATM   18  C7  UNL     1      -2.813  51.454 -22.921  1.00  0.00    -0.085 C 
HETATM   19  C8  UNL     1      -2.659  52.674 -23.795  1.00  0.00     0.043 C 
BRANCH  18  20
HETATM   20  C6  UNL     1      -2.086  51.589 -21.585  1.00  0.00     0.037 C 
BRANCH  20  21
HETATM   21  C5  UNL     1      -0.617  51.146 -21.475  1.00  0.00     0.031 C 
BRANCH  21  22
HETATM   22  C4  UNL     1       0.354  52.255 -21.796  1.00  0.00    -0.024 C 
HETATM   23  C2  UNL     1       0.729  53.287 -21.014  1.00  0.00    -0.091 C 
HETATM   24  C1  UNL     1       0.261  53.532 -19.606  1.00  0.00     0.042 C 
HETATM   25  C3  UNL     1       1.711  54.311 -21.522  1.00  0.00     0.042 C 
ENDBRANCH  21  22
ENDBRANCH  20  21
ENDBRANCH  18  20
ENDBRANCH  16  17
BRANCH  16  26
HETATM   26  O1  UNL     1      -5.489  50.895 -24.418  1.00  0.00    -0.391 OA
HETATM   27  H17 UNL     1      -6.232  50.274 -24.324  1.00  0.00     0.210 HD
ENDBRANCH  16  26
ENDBRANCH  15  16
ENDBRANCH  13  15
ENDBRANCH  11  12
ENDBRANCH  10  11
ENDBRANCH   1  10
BRANCH   1  28
HETATM   28  C18 UNL     1      -5.408  49.120 -31.297  1.00  0.00     0.177 C 
BRANCH  28  29
HETATM   29  O2  UNL     1      -4.525  49.832 -30.436  1.00  0.00    -0.400 OA
HETATM   30  H30 UNL     1      -5.061  50.115 -29.663  1.00  0.00     0.209 HD
ENDBRANCH  28  29
ENDBRANCH   1  28
BRANCH   2  31
HETATM   31  C20 UNL     1      -4.300  46.465 -31.642  1.00  0.00     0.012 C 
BRANCH  31  32
HETATM   32  C21 UNL     1      -4.060  46.320 -33.147  1.00  0.00     0.027 C 
BRANCH  32  33
HETATM   33  C22 UNL     1      -3.692  47.619 -33.849  1.00  0.00     0.164 C 
BRANCH  33  34
HETATM   34  O3  UNL     1      -2.368  47.968 -33.470  1.00  0.00    -0.401 OA
HETATM   35  H38 UNL     1      -2.146  48.801 -33.922  1.00  0.00     0.209 HD
ENDBRANCH  33  34
ENDBRANCH  32  33
ENDBRANCH  31  32
ENDBRANCH   2  31
BRANCH   8  36
HETATM   36  O5  UNL     1      -8.084  49.530 -30.342  1.00  0.00    -0.389 OA
HETATM   37  H50 UNL     1      -8.193  49.543 -29.373  1.00  0.00     0.210 HD
ENDBRANCH   8  36
BRANCH   4  38
HETATM   38  C26 UNL     1      -6.906  43.634 -31.368  1.00  0.00     0.265 C 
HETATM   39  O4  UNL     1      -6.962  42.447 -31.672  1.00  0.00    -0.302 OA
ENDBRANCH   4  38
TORSDOF 18
ENDMDL
