MODEL 1
REMARK minimizedAffinity -9.31765747
REMARK CNNscore 0.64860487
REMARK CNNaffinity 7.19152641
REMARK  9 active torsions:
REMARK  status: ('A' for Active; 'I' for Inactive)
REMARK    1  A    between atoms: C3_3  and  O1_4 
REMARK    2  A    between atoms: N1_14  and  O2_16 
REMARK    3  A    between atoms: O2_16  and  C13_17 
REMARK    4  A    between atoms: C13_17  and  C14_18 
REMARK       I    between atoms: C14_18  and  N2_20 
REMARK    5  A    between atoms: N2_20  and  C15_21 
REMARK    6  A    between atoms: C15_21  and  C16_22 
REMARK    7  A    between atoms: C15_21  and  C18_26 
REMARK    8  A    between atoms: C16_22  and  C17_23 
REMARK    9  A    between atoms: C17_23  and  O5_25 
ROOT
HETATM    1  C1  UNL     1      -2.922  51.843 -26.619  1.00  0.00     0.015 C 
HETATM    2  C2  UNL     1      -3.508  51.625 -25.592  1.00  0.00    -0.078 C 
HETATM    3  C3  UNL     1      -4.246  51.373 -24.346  1.00  0.00     0.128 C 
HETATM    4  C4  UNL     1      -4.157  52.568 -23.401  1.00  0.00     0.052 C 
HETATM    5  C5  UNL     1      -4.577  51.993 -22.057  1.00  0.00     0.010 C 
HETATM    6  C6  UNL     1      -4.020  50.552 -22.008  1.00  0.00     0.002 C 
HETATM    7  C7  UNL     1      -2.808  50.464 -21.047  1.00  0.00    -0.004 C 
HETATM    8  C8  UNL     1      -2.499  49.010 -20.612  1.00  0.00     0.010 C 
HETATM    9  C9  UNL     1      -1.026  48.770 -20.269  1.00  0.00     0.035 C 
HETATM   10  C10 UNL     1      -0.446  50.002 -19.629  1.00  0.00    -0.069 C 
HETATM   11  C11 UNL     1      -0.113  50.008 -18.327  1.00  0.00     0.030 C 
HETATM   12  C12 UNL     1       0.342  51.243 -17.640  1.00  0.00     0.032 C 
HETATM   13  N1  UNL     1       0.727  51.138 -16.398  1.00  0.00    -0.271 N 
ATOM     14  H1  UNL     1       0.702  50.271 -15.861  1.00  0.00     0.194 HD
HETATM   15  C25 UNL     1       0.339  52.547 -18.416  1.00  0.00     0.060 C 
HETATM   16  C26 UNL     1      -0.591  52.491 -19.626  1.00  0.00     0.020 C 
HETATM   17  C27 UNL     1      -0.387  51.236 -20.525  1.00  0.00    -0.016 C 
HETATM   18  C28 UNL     1       1.010  51.324 -21.178  1.00  0.00     0.020 C 
HETATM   19  C29 UNL     1      -1.562  51.203 -21.596  1.00  0.00     0.002 C 
HETATM   20  C30 UNL     1      -1.201  50.726 -23.020  1.00  0.00     0.007 C 
HETATM   21  C31 UNL     1      -2.223  49.813 -23.694  1.00  0.00     0.014 C 
HETATM   22  C32 UNL     1      -3.724  50.151 -23.497  1.00  0.00     0.003 C 
HETATM   23  C33 UNL     1      -4.512  48.866 -23.862  1.00  0.00     0.020 C 
ENDROOT
BRANCH   3  24
HETATM   24  O1  UNL     1      -5.624  51.216 -24.707  1.00  0.00    -0.377 OA
HETATM   25  H2  UNL     1      -6.137  51.039 -23.906  1.00  0.00     0.211 HD
ENDBRANCH   3  24
BRANCH  13  26
HETATM   26  O2  UNL     1       1.180  52.365 -15.893  1.00  0.00    -0.271 OA
BRANCH  26  27
HETATM   27  C13 UNL     1       2.605  52.377 -15.898  1.00  0.00     0.303 C 
BRANCH  27  28
HETATM   28  C14 UNL     1       3.144  51.829 -14.584  1.00  0.00     0.244 C 
HETATM   29  O3  UNL     1       4.094  51.052 -14.531  1.00  0.00    -0.271 OA
HETATM   30  N2  UNL     1       2.523  52.340 -13.464  1.00  0.00    -0.354 N 
HETATM   31  H16 UNL     1       1.738  52.973 -13.610  1.00  0.00     0.162 HD
BRANCH  30  32
HETATM   32  C15 UNL     1       2.906  52.011 -12.092  1.00  0.00     0.098 C 
BRANCH  32  33
HETATM   33  C16 UNL     1       2.235  50.692 -11.675  1.00  0.00     0.135 C 
BRANCH  33  34
HETATM   34  C17 UNL     1       3.210  49.617 -11.285  1.00  0.00     0.141 C 
HETATM   35  O4  UNL     1       3.940  49.004 -12.044  1.00  0.00    -0.650 OA
BRANCH  34  36
HETATM   36  O5  UNL     1       3.202  49.339  -9.967  1.00  0.00    -0.776 OA
HETATM   37  H20 UNL     1       3.858  48.613  -9.878  1.00  0.00     0.167 HD
ENDBRANCH  34  36
ENDBRANCH  33  34
ENDBRANCH  32  33
BRANCH  32  38
HETATM   38  C18 UNL     1       2.635  53.200 -11.131  1.00  0.00     0.014 C 
HETATM   39  C19 UNL     1       1.695  52.809  -9.972  1.00  0.00     0.033 C 
HETATM   40  C20 UNL     1       1.952  53.605  -8.696  1.00  0.00     0.169 C 
HETATM   41  O6  UNL     1       2.345  54.934  -9.013  1.00  0.00    -0.381 OA
HETATM   42  C21 UNL     1       3.629  55.023  -9.649  1.00  0.00     0.054 C 
HETATM   43  C22 UNL     1       3.588  56.301 -10.498  1.00  0.00     0.045 C 
HETATM   44  C23 UNL     1       4.708  55.183  -8.572  1.00  0.00     0.045 C 
HETATM   45  C24 UNL     1       3.927  53.794 -10.540  1.00  0.00     0.044 C 
ENDBRANCH  32  38
ENDBRANCH  30  32
ENDBRANCH  27  28
ENDBRANCH  26  27
ENDBRANCH  13  26
TORSDOF 9
ENDMDL
