MODEL 1
REMARK minimizedAffinity -9.68676186
REMARK  9 active torsions:
REMARK  status: ('A' for Active; 'I' for Inactive)
REMARK    1  A    between atoms: C3_3  and  O1_4 
REMARK    2  A    between atoms: N1_14  and  O2_16 
REMARK    3  A    between atoms: O2_16  and  C13_17 
REMARK    4  A    between atoms: C13_17  and  C14_18 
REMARK       I    between atoms: C14_18  and  N2_20 
REMARK    5  A    between atoms: N2_20  and  C15_21 
REMARK    6  A    between atoms: C15_21  and  C16_22 
REMARK    7  A    between atoms: C15_21  and  C17_25 
REMARK    8  A    between atoms: C16_22  and  O5_24 
REMARK    9  A    between atoms: C17_25  and  C19_27 
ROOT
HETATM    1  C1  UNL     1     -14.479   8.404  12.645  1.00  0.00     0.015 C 
HETATM    2  C2  UNL     1     -13.368   8.590  13.065  1.00  0.00    -0.078 C 
HETATM    3  C3  UNL     1     -12.005   8.825  13.565  1.00  0.00     0.128 C 
HETATM    4  C4  UNL     1     -12.000   9.438  14.988  1.00  0.00     0.052 C 
HETATM    5  C5  UNL     1     -10.756   8.866  15.703  1.00  0.00     0.010 C 
HETATM    6  C6  UNL     1     -10.002   8.108  14.615  1.00  0.00     0.002 C 
HETATM    7  C7  UNL     1      -8.971   7.050  15.031  1.00  0.00    -0.004 C 
HETATM    8  C8  UNL     1      -7.888   7.657  15.936  1.00  0.00     0.010 C 
HETATM    9  C9  UNL     1      -6.819   6.632  16.293  1.00  0.00     0.035 C 
HETATM   10  C10 UNL     1      -6.216   6.007  15.056  1.00  0.00    -0.069 C 
HETATM   11  C11 UNL     1      -4.883   6.044  14.876  1.00  0.00     0.030 C 
HETATM   12  C12 UNL     1      -4.245   5.379  13.708  1.00  0.00     0.032 C 
HETATM   13  N1  UNL     1      -3.016   5.533  13.317  1.00  0.00    -0.271 N 
ATOM     14  H1  UNL     1      -2.592   5.018  12.546  1.00  0.00     0.194 HD
HETATM   15  C21 UNL     1      -5.106   4.405  12.938  1.00  0.00     0.060 C 
HETATM   16  C22 UNL     1      -6.480   5.020  12.727  1.00  0.00     0.020 C 
HETATM   17  C23 UNL     1      -7.203   5.385  14.058  1.00  0.00    -0.016 C 
HETATM   18  C24 UNL     1      -7.777   4.090  14.674  1.00  0.00     0.020 C 
HETATM   19  C25 UNL     1      -8.328   6.444  13.744  1.00  0.00     0.002 C 
HETATM   20  C26 UNL     1      -9.405   5.942  12.745  1.00  0.00     0.007 C 
HETATM   21  C27 UNL     1     -10.479   7.002  12.436  1.00  0.00     0.014 C 
HETATM   22  C28 UNL     1     -11.133   7.543  13.719  1.00  0.00     0.003 C 
HETATM   23  C29 UNL     1     -11.945   6.406  14.404  1.00  0.00     0.020 C 
ENDROOT
BRANCH   3  24
HETATM   24  O1  UNL     1     -11.369   9.768  12.699  1.00  0.00    -0.377 OA
HETATM   25  H2  UNL     1     -11.568   9.495  11.788  1.00  0.00     0.211 HD
ENDBRANCH   3  24
BRANCH  13  26
HETATM   26  O2  UNL     1      -2.344   6.497  14.087  1.00  0.00    -0.271 OA
BRANCH  26  27
HETATM   27  C13 UNL     1      -1.402   7.188  13.273  1.00  0.00     0.303 C 
BRANCH  27  28
HETATM   28  C14 UNL     1      -0.828   6.328  12.147  1.00  0.00     0.244 C 
HETATM   29  O3  UNL     1      -1.044   5.120  12.070  1.00  0.00    -0.271 OA
HETATM   30  N2  UNL     1      -0.049   7.017  11.244  1.00  0.00    -0.344 N 
HETATM   31  H16 UNL     1       0.325   7.891  11.616  1.00  0.00     0.163 HD
BRANCH  30  32
HETATM   32  C15 UNL     1       0.740   6.326  10.222  1.00  0.00     0.186 C 
BRANCH  32  33
HETATM   33  C16 UNL     1       1.832   5.488  10.910  1.00  0.00     0.163 C 
HETATM   34  O4  UNL     1       2.002   4.284  10.797  1.00  0.00    -0.648 OA
BRANCH  33  35
HETATM   35  O5  UNL     1       2.714   6.214  11.634  1.00  0.00    -0.775 OA
HETATM   36  H18 UNL     1       3.327   5.542  11.998  1.00  0.00     0.167 HD
ENDBRANCH  33  35
ENDBRANCH  32  33
BRANCH  32  37
HETATM   37  C17 UNL     1       1.366   7.355   9.247  1.00  0.00     0.014 C 
HETATM   38  C18 UNL     1       0.295   8.295   8.668  1.00  0.00     0.012 C 
BRANCH  37  39
HETATM   39  C19 UNL     1       2.184   6.721   8.100  1.00  0.00     0.002 C 
HETATM   40  C20 UNL     1       1.953   7.333   6.724  1.00  0.00     0.005 C 
ENDBRANCH  37  39
ENDBRANCH  32  37
ENDBRANCH  30  32
ENDBRANCH  27  28
ENDBRANCH  26  27
ENDBRANCH  13  26
TORSDOF 9
ENDMDL
