MODEL 1
REMARK minimizedAffinity -10.2075586
REMARK  11 active torsions:
REMARK  status: ('A' for Active; 'I' for Inactive)
REMARK    1  A    between atoms: C2_2  and  C3_3 
REMARK    2  A    between atoms: C2_2  and  C10_11 
REMARK    3  A    between atoms: C4_4  and  C5_5 
REMARK    4  A    between atoms: C5_5  and  C7_7 
REMARK    5  A    between atoms: C7_7  and  C9_9 
REMARK    6  A    between atoms: C9_9  and  O1_10 
REMARK    7  A    between atoms: C11_12  and  O2_13 
REMARK    8  A    between atoms: C12_14  and  O3_15 
REMARK    9  A    between atoms: C23_26  and  O4_27 
REMARK   10  A    between atoms: C26_30  and  O5_31 
REMARK   11  A    between atoms: C28_33  and  O6_34 
ROOT
HETATM    1  C10 UNL     1      -5.635   5.422  13.054  1.00  0.00     0.033 C 
HETATM    2  C11 UNL     1      -6.549   4.300  12.472  1.00  0.00     0.152 C 
HETATM    3  C12 UNL     1      -8.013   4.747  12.751  1.00  0.00     0.155 C 
HETATM    4  C13 UNL     1      -7.868   6.151  13.342  1.00  0.00     0.060 C 
HETATM    5  C14 UNL     1      -6.529   6.098  14.145  1.00  0.00    -0.028 C 
HETATM    6  C15 UNL     1      -6.563   5.282  15.460  1.00  0.00     0.016 C 
HETATM    7  C16 UNL     1      -6.149   7.549  14.487  1.00  0.00     0.011 C 
HETATM    8  C17 UNL     1      -7.275   8.267  15.259  1.00  0.00     0.009 C 
HETATM    9  C18 UNL     1      -8.625   8.251  14.490  1.00  0.00     0.029 C 
HETATM   10  C19 UNL     1      -9.771   9.102  15.166  1.00  0.00    -0.031 C 
HETATM   11  C20 UNL     1     -10.086   8.588  16.596  1.00  0.00     0.016 C 
HETATM   12  C21 UNL     1      -9.322  10.598  15.291  1.00  0.00     0.012 C 
HETATM   13  C22 UNL     1     -10.368  11.637  14.857  1.00  0.00     0.032 C 
HETATM   14  C23 UNL     1     -11.795  11.279  15.254  1.00  0.00     0.118 C 
HETATM   15  C24 UNL     1     -12.207   9.868  14.809  1.00  0.00     0.039 C 
HETATM   16  C25 UNL     1     -11.029   9.044  14.243  1.00  0.00     0.025 C 
HETATM   17  C26 UNL     1     -11.455   7.609  13.885  1.00  0.00     0.126 C 
HETATM   18  C27 UNL     1     -10.312   6.833  13.224  1.00  0.00     0.071 C 
HETATM   19  C28 UNL     1      -9.051   6.796  14.094  1.00  0.00     0.071 C 
ENDROOT
BRANCH   1  20
HETATM   20  C2  UNL     1      -4.139   5.098  13.333  1.00  0.00     0.011 C 
HETATM   21  C1  UNL     1      -3.406   6.346  13.856  1.00  0.00     0.015 C 
BRANCH  20  22
HETATM   22  C3  UNL     1      -3.350   4.376  12.265  1.00  0.00    -0.026 C 
HETATM   23  C4  UNL     1      -2.025   4.164  12.247  1.00  0.00    -0.026 C 
BRANCH  23  24
HETATM   24  C5  UNL     1      -1.297   3.475  11.115  1.00  0.00     0.009 C 
HETATM   25  C6  UNL     1       0.189   3.379  11.480  1.00  0.00     0.014 C 
BRANCH  24  26
HETATM   26  C7  UNL     1      -1.945   2.116  10.735  1.00  0.00     0.012 C 
HETATM   27  C8  UNL     1      -3.067   1.671  11.682  1.00  0.00     0.012 C 
BRANCH  26  28
HETATM   28  C9  UNL     1      -0.882   1.011  10.618  1.00  0.00     0.168 C 
BRANCH  28  29
HETATM   29  O1  UNL     1      -0.664   0.688   9.250  1.00  0.00    -0.400 OA
HETATM   30  H17 UNL     1      -0.009  -0.027   9.228  1.00  0.00     0.209 HD
ENDBRANCH  28  29
ENDBRANCH  26  28
ENDBRANCH  24  26
ENDBRANCH  23  24
ENDBRANCH  20  22
ENDBRANCH   1  20
BRANCH   2  31
HETATM   31  O2  UNL     1      -6.306   3.010  13.004  1.00  0.00    -0.393 OA
HETATM   32  H20 UNL     1      -7.049   2.816  13.613  1.00  0.00     0.210 HD
ENDBRANCH   2  31
BRANCH   3  33
HETATM   33  O3  UNL     1      -8.661   3.855  13.663  1.00  0.00    -0.392 OA
HETATM   34  H22 UNL     1      -9.341   3.384  13.155  1.00  0.00     0.210 HD
ENDBRANCH   3  33
BRANCH  19  35
HETATM   35  O6  UNL     1      -9.385   6.029  15.241  1.00  0.00    -0.389 OA
HETATM   36  H48 UNL     1      -9.297   5.082  15.002  1.00  0.00     0.210 HD
ENDBRANCH  19  35
BRANCH  17  37
HETATM   37  O5  UNL     1     -12.551   7.636  12.962  1.00  0.00    -0.395 OA
HETATM   38  H45 UNL     1     -12.289   8.189  12.201  1.00  0.00     0.210 HD
ENDBRANCH  17  37
BRANCH  14  39
HETATM   39  O4  UNL     1     -11.939  11.387  16.670  1.00  0.00    -0.396 OA
HETATM   40  H40 UNL     1     -11.704  12.298  16.925  1.00  0.00     0.210 HD
ENDBRANCH  14  39
TORSDOF 11
ENDMDL
