MODEL 1
REMARK minimizedAffinity -7.78759718
REMARK CNNscore 0.206642985
REMARK CNNaffinity 6.82231522
REMARK  14 active torsions:
REMARK  status: ('A' for Active; 'I' for Inactive)
REMARK    1  A    between atoms: C2_2  and  C3_3 
REMARK    2  A    between atoms: C6_6  and  C7_7 
REMARK    3  A    between atoms: C7_7  and  C8_8 
REMARK    4  A    between atoms: C14_17  and  C15_18 
REMARK    5  A    between atoms: C15_18  and  O3_20 
REMARK    6  A    between atoms: C19_24  and  C20_25 
REMARK    7  A    between atoms: C20_25  and  C21_26 
REMARK    8  A    between atoms: C22_27  and  C23_28 
REMARK    9  A    between atoms: C25_30  and  C26_31 
REMARK   10  A    between atoms: C27_33  and  C28_34 
REMARK   11  A    between atoms: C29_38  and  C30_39 
REMARK   12  A    between atoms: C30_39  and  C31_40 
REMARK   13  A    between atoms: C31_40  and  C32_41 
REMARK   14  A    between atoms: C32_41  and  O7_43 
ROOT
HETATM    1  C8  UNL     1       2.585  55.586  -8.987  1.00  0.00     0.016 C 
HETATM    2  N1  UNL     1       1.558  54.797  -9.048  1.00  0.00    -0.362 N 
ATOM      3  H1  UNL     1       0.745  54.822  -8.431  1.00  0.00     0.165 HD
HETATM    4  C9  UNL     1       1.756  53.921 -10.091  1.00  0.00     0.024 C 
HETATM    5  C10 UNL     1       0.774  53.093 -10.480  1.00  0.00     0.014 C 
HETATM    6  C11 UNL     1       0.864  52.066 -11.440  1.00  0.00     0.056 A 
HETATM    7  C12 UNL     1      -0.172  51.180 -11.373  1.00  0.00     0.046 A 
HETATM    8  C13 UNL     1      -1.072  51.588 -10.308  1.00  0.00     0.180 C 
HETATM    9  O1  UNL     1      -2.027  50.939  -9.898  1.00  0.00    -0.291 OA
HETATM   10  C14 UNL     1      -0.605  52.969  -9.762  1.00  0.00     0.197 C 
HETATM   11  C17 UNL     1       0.016  50.206 -12.367  1.00  0.00    -0.023 A 
HETATM   12  C18 UNL     1      -0.881  49.058 -12.666  1.00  0.00     0.051 C 
HETATM   13  C19 UNL     1       1.188  50.580 -13.041  1.00  0.00     0.022 A 
HETATM   14  N3  UNL     1       1.694  51.731 -12.448  1.00  0.00    -0.357 N 
HETATM   15  C29 UNL     1       3.172  54.017 -10.620  1.00  0.00     0.046 C 
HETATM   16  C34 UNL     1       3.619  55.384 -10.071  1.00  0.00     0.041 C 
HETATM   17  C35 UNL     1       3.494  56.496 -11.110  1.00  0.00     0.017 C 
HETATM   18  H25 UNL     1       2.515  52.228 -12.759  1.00  0.00     0.166 HD
ENDROOT
BRANCH  10  19
HETATM   19  C15 UNL     1      -1.560  54.049 -10.205  1.00  0.00     0.274 C 
HETATM   20  O2  UNL     1      -1.229  55.137 -10.668  1.00  0.00    -0.264 OA
BRANCH  19  21
HETATM   21  O3  UNL     1      -2.855  53.660 -10.013  1.00  0.00    -0.326 OA
HETATM   22  C16 UNL     1      -3.703  53.833 -11.155  1.00  0.00     0.213 C 
ENDBRANCH  19  21
ENDBRANCH  10  19
BRANCH  15  23
HETATM   23  C30 UNL     1       4.096  52.872 -10.150  1.00  0.00     0.021 C 
BRANCH  23  24
HETATM   24  C31 UNL     1       4.975  53.174  -8.929  1.00  0.00     0.112 C 
BRANCH  24  25
HETATM   25  C32 UNL     1       6.441  53.195  -9.303  1.00  0.00     0.258 C 
HETATM   26  O6  UNL     1       7.126  54.204  -9.388  1.00  0.00    -0.265 OA
BRANCH  25  27
HETATM   27  O7  UNL     1       6.890  51.921  -9.489  1.00  0.00    -0.326 OA
HETATM   28  C33 UNL     1       7.096  51.191  -8.281  1.00  0.00     0.213 C 
ENDBRANCH  25  27
ENDBRANCH  24  25
ENDBRANCH  23  24
ENDBRANCH  15  23
BRANCH   1  29
HETATM   29  C7  UNL     1       2.797  56.636  -7.964  1.00  0.00     0.055 C 
BRANCH  29  30
HETATM   30  C6  UNL     1       3.970  56.805  -7.349  1.00  0.00     0.043 A 
HETATM   31  C4  UNL     1       4.290  57.652  -6.215  1.00  0.00    -0.019 A 
HETATM   32  C3  UNL     1       5.590  57.515  -5.866  1.00  0.00     0.039 A 
HETATM   33  C5  UNL     1       3.253  58.521  -5.583  1.00  0.00     0.052 C 
HETATM   34  C36 UNL     1       6.166  56.532  -6.844  1.00  0.00     0.256 A 
HETATM   35  N4  UNL     1       5.130  56.177  -7.675  1.00  0.00    -0.322 N 
HETATM   36  O8  UNL     1       7.309  56.120  -6.900  1.00  0.00    -0.267 OA
HETATM   37  H38 UNL     1       5.238  55.540  -8.462  1.00  0.00     0.169 HD
BRANCH  32  38
HETATM   38  C2  UNL     1       6.306  58.185  -4.805  1.00  0.00     0.007 C 
HETATM   39  C1  UNL     1       7.394  58.951  -4.939  1.00  0.00     0.012 C 
ENDBRANCH  32  38
ENDBRANCH  29  30
ENDBRANCH   1  29
BRANCH  13  40
HETATM   40  C20 UNL     1       1.880  49.962 -14.220  1.00  0.00     0.115 C 
BRANCH  40  41
HETATM   41  C21 UNL     1       1.301  50.424 -15.523  1.00  0.00     0.022 A 
HETATM   42  C22 UNL     1       1.529  51.557 -16.295  1.00  0.00    -0.020 A 
HETATM   43  C25 UNL     1       0.653  51.471 -17.436  1.00  0.00     0.040 A 
HETATM   44  C27 UNL     1      -0.058  50.284 -17.319  1.00  0.00     0.084 A 
HETATM   45  N2  UNL     1       0.357  49.668 -16.165  1.00  0.00    -0.356 N 
HETATM   46  H24 UNL     1      -0.022  48.784 -15.842  1.00  0.00     0.166 HD
BRANCH  42  47
HETATM   47  C23 UNL     1       2.492  52.671 -15.994  1.00  0.00     0.037 C 
HETATM   48  C24 UNL     1       3.932  52.305 -16.324  1.00  0.00     0.010 C 
ENDBRANCH  42  47
BRANCH  43  49
HETATM   49  C26 UNL     1       0.517  52.439 -18.518  1.00  0.00     0.273 C 
HETATM   50  O4  UNL     1      -0.536  52.996 -18.812  1.00  0.00    -0.301 OA
ENDBRANCH  43  49
BRANCH  44  51
HETATM   51  C28 UNL     1      -1.064  49.691 -18.169  1.00  0.00     0.288 C 
HETATM   52  O5  UNL     1      -1.758  48.739 -17.814  1.00  0.00    -0.300 OA
ENDBRANCH  44  51
ENDBRANCH  40  41
ENDBRANCH  13  40
TORSDOF 14
ENDMDL
