MODEL 1
REMARK minimizedAffinity -9.04904938
REMARK CNNscore 0.798523366
REMARK CNNaffinity 6.55956507
REMARK  14 active torsions:
REMARK  status: ('A' for Active; 'I' for Inactive)
REMARK    1  A    between atoms: C2_2  and  O1_3 
REMARK    2  A    between atoms: O1_3  and  C3_4 
REMARK    3  A    between atoms: C4_6  and  C5_7 
REMARK    4  A    between atoms: C5_7  and  O3_8 
REMARK    5  A    between atoms: C5_7  and  C6_9 
REMARK    6  A    between atoms: C6_9  and  O4_10 
REMARK    7  A    between atoms: O4_10  and  C7_11 
REMARK    8  A    between atoms: C12_16  and  C13_17 
REMARK    9  A    between atoms: C13_17  and  O5_19 
REMARK   10  A    between atoms: C13_17  and  C15_20 
REMARK   11  A    between atoms: C15_20  and  O6_21 
REMARK   12  A    between atoms: C18_24  and  O7_26 
REMARK   13  A    between atoms: C22_29  and  O8_30 
REMARK   14  A    between atoms: C23_31  and  O9_32 
ROOT
HETATM    1  C7  UNL     1      -0.134  52.023 -22.201  1.00  0.00     0.126 C 
HETATM    2  C8  UNL     1      -1.579  51.568 -22.080  1.00  0.00     0.040 C 
HETATM    3  C9  UNL     1      -1.771  51.264 -20.578  1.00  0.00     0.026 C 
HETATM    4  C10 UNL     1      -0.726  52.157 -19.844  1.00  0.00    -0.001 C 
HETATM    5  C11 UNL     1       0.209  51.519 -18.807  1.00  0.00     0.013 C 
HETATM    6  C12 UNL     1      -0.495  50.943 -17.562  1.00  0.00     0.022 C 
HETATM    7  C16 UNL     1      -1.025  49.520 -17.832  1.00  0.00     0.010 C 
HETATM    8  C17 UNL     1      -2.186  49.448 -18.814  1.00  0.00     0.038 C 
HETATM    9  C18 UNL     1      -1.876  49.746 -20.290  1.00  0.00     0.058 C 
HETATM   10  C19 UNL     1      -0.725  48.892 -20.836  1.00  0.00     0.046 C 
HETATM   11  C20 UNL     1       0.002  52.933 -20.982  1.00  0.00     0.015 C 
HETATM   12  C21 UNL     1       1.445  53.362 -20.744  1.00  0.00     0.013 C 
ENDROOT
BRANCH   1  13
HETATM   13  O4  UNL     1       0.093  52.761 -23.395  1.00  0.00    -0.383 OA
BRANCH  13  14
HETATM   14  C6  UNL     1       0.178  51.916 -24.553  1.00  0.00     0.202 C 
BRANCH  14  15
HETATM   15  C5  UNL     1      -0.176  52.771 -25.775  1.00  0.00     0.173 C 
BRANCH  15  16
HETATM   16  C4  UNL     1      -0.935  51.969 -26.844  1.00  0.00     0.187 C 
HETATM   17  O2  UNL     1      -0.911  50.559 -26.501  1.00  0.00    -0.348 OA
HETATM   18  C3  UNL     1      -2.269  50.098 -26.402  1.00  0.00     0.291 C 
HETATM   19  C23 UNL     1      -3.056  51.005 -27.355  1.00  0.00     0.204 C 
HETATM   20  C22 UNL     1      -2.406  52.355 -27.087  1.00  0.00     0.183 C 
BRANCH  18  21
HETATM   21  O1  UNL     1      -2.766  50.234 -25.075  1.00  0.00    -0.359 OA
BRANCH  21  22
HETATM   22  C2  UNL     1      -3.380  49.036 -24.608  1.00  0.00     0.166 C 
HETATM   23  C1  UNL     1      -3.891  48.266 -25.811  1.00  0.00     0.033 C 
ENDBRANCH  21  22
ENDBRANCH  18  21
BRANCH  19  24
HETATM   24  O9  UNL     1      -2.848  50.624 -28.725  1.00  0.00    -0.388 OA
HETATM   25  H42 UNL     1      -1.931  50.300 -28.810  1.00  0.00     0.210 HD
ENDBRANCH  19  24
BRANCH  20  26
HETATM   26  O8  UNL     1      -3.025  53.003 -25.978  1.00  0.00    -0.390 OA
HETATM   27  H40 UNL     1      -2.681  52.565 -25.165  1.00  0.00     0.210 HD
ENDBRANCH  20  26
ENDBRANCH  15  16
BRANCH  15  28
HETATM   28  O3  UNL     1       1.033  53.339 -26.312  1.00  0.00    -0.391 OA
HETATM   29  H9  UNL     1       1.510  53.686 -25.531  1.00  0.00     0.210 HD
ENDBRANCH  15  28
ENDBRANCH  14  15
ENDBRANCH  13  14
ENDBRANCH   1  13
BRANCH   9  30
HETATM   30  O7  UNL     1      -3.050  49.316 -21.022  1.00  0.00    -0.390 OA
HETATM   31  H34 UNL     1      -3.184  48.367 -20.852  1.00  0.00     0.210 HD
ENDBRANCH   9  30
BRANCH   6  32
HETATM   32  C13 UNL     1       0.430  50.968 -16.287  1.00  0.00     0.079 C 
HETATM   33  C14 UNL     1       0.863  49.573 -15.827  1.00  0.00     0.048 C 
BRANCH  32  34
HETATM   34  O5  UNL     1      -0.325  51.552 -15.208  1.00  0.00    -0.388 OA
HETATM   35  H23 UNL     1      -0.363  52.508 -15.409  1.00  0.00     0.210 HD
ENDBRANCH  32  34
BRANCH  32  36
HETATM   36  C15 UNL     1       1.681  51.866 -16.454  1.00  0.00     0.201 C 
BRANCH  36  37
HETATM   37  O6  UNL     1       1.383  53.190 -16.004  1.00  0.00    -0.398 OA
HETATM   38  H26 UNL     1       2.203  53.708 -16.093  1.00  0.00     0.209 HD
ENDBRANCH  36  37
ENDBRANCH  32  36
ENDBRANCH   6  32
TORSDOF 14
ENDMDL
