MODEL 1
REMARK minimizedAffinity -9.96513939
REMARK  7 active torsions:
REMARK  status: ('A' for Active; 'I' for Inactive)
REMARK    1  A    between atoms: C2_2  and  C30_32 
REMARK    2  A    between atoms: C3_3  and  C4_4 
REMARK    3  A    between atoms: C4_4  and  O1_5 
REMARK    4  A    between atoms: C4_4  and  C5_6 
REMARK    5  A    between atoms: C5_6  and  C6_7 
REMARK    6  A    between atoms: C6_7  and  C8_9 
REMARK    7  A    between atoms: C30_32  and  O3_33 
ROOT
HETATM    1  C8  UNL     1      -0.587  52.370 -21.867  1.00  0.00    -0.002 C 
HETATM    2  C9  UNL     1       0.842  53.001 -21.852  1.00  0.00     0.007 C 
HETATM    3  C10 UNL     1       1.410  52.831 -20.427  1.00  0.00     0.015 C 
HETATM    4  C11 UNL     1       0.194  52.425 -19.575  1.00  0.00    -0.013 C 
HETATM    5  C12 UNL     1      -0.560  53.759 -19.234  1.00  0.00     0.021 C 
HETATM    6  C13 UNL     1       0.440  51.743 -18.226  1.00  0.00    -0.070 C 
HETATM    7  C14 UNL     1       1.417  52.171 -17.417  1.00  0.00    -0.022 C 
HETATM    8  C15 UNL     1       1.545  51.773 -15.992  1.00  0.00     0.034 C 
HETATM    9  C16 UNL     1       0.202  51.338 -15.338  1.00  0.00     0.013 C 
HETATM   10  C17 UNL     1       0.458  50.931 -13.828  1.00  0.00     0.018 C 
HETATM   11  C18 UNL     1       1.398  51.941 -13.121  1.00  0.00     0.023 C 
HETATM   12  C19 UNL     1      -0.830  50.894 -12.975  1.00  0.00     0.023 C 
HETATM   13  C20 UNL     1       1.112  49.541 -13.789  1.00  0.00     0.135 C 
HETATM   14  O2  UNL     1       2.021  49.268 -13.003  1.00  0.00    -0.297 OA
HETATM   15  C21 UNL     1       0.532  48.459 -14.675  1.00  0.00     0.080 C 
HETATM   16  C22 UNL     1       0.313  48.931 -16.106  1.00  0.00     0.017 C 
HETATM   17  C23 UNL     1      -0.515  50.250 -16.233  1.00  0.00    -0.031 C 
HETATM   18  C24 UNL     1      -1.953  49.952 -15.752  1.00  0.00     0.016 C 
HETATM   19  C25 UNL     1      -0.550  50.658 -17.791  1.00  0.00     0.024 C 
HETATM   20  C26 UNL     1      -1.941  50.942 -18.417  1.00  0.00     0.010 C 
HETATM   21  C27 UNL     1      -1.946  51.151 -19.957  1.00  0.00     0.011 C 
HETATM   22  C28 UNL     1      -0.571  51.488 -20.572  1.00  0.00    -0.029 C 
HETATM   23  C29 UNL     1       0.195  50.169 -20.915  1.00  0.00     0.016 C 
ENDROOT
BRANCH   1  24
HETATM   24  C6  UNL     1      -0.938  51.733 -23.247  1.00  0.00    -0.011 C 
HETATM   25  C7  UNL     1      -2.116  50.757 -23.141  1.00  0.00     0.010 C 
BRANCH  24  26
HETATM   26  C5  UNL     1      -1.255  52.849 -24.284  1.00  0.00     0.040 C 
BRANCH  26  27
HETATM   27  C4  UNL     1      -0.035  53.609 -24.828  1.00  0.00     0.141 C 
BRANCH  27  28
HETATM   28  C3  UNL     1       1.106  52.677 -25.149  1.00  0.00     0.009 C 
HETATM   29  C2  UNL     1       1.304  51.891 -26.232  1.00  0.00    -0.062 C 
HETATM   30  C1  UNL     1       0.320  51.748 -27.366  1.00  0.00     0.045 C 
BRANCH  29  31
HETATM   31  C30 UNL     1       2.546  51.046 -26.424  1.00  0.00     0.198 C 
BRANCH  31  32
HETATM   32  O3  UNL     1       3.350  51.513 -27.498  1.00  0.00    -0.397 OA
HETATM   33  H48 UNL     1       3.678  52.388 -27.231  1.00  0.00     0.209 HD
ENDBRANCH  31  32
ENDBRANCH  29  31
ENDBRANCH  27  28
BRANCH  27  34
HETATM   34  O1  UNL     1      -0.393  54.376 -25.970  1.00  0.00    -0.392 OA
HETATM   35  H6  UNL     1       0.439  54.659 -26.386  1.00  0.00     0.210 HD
ENDBRANCH  27  34
ENDBRANCH  26  27
ENDBRANCH  24  26
ENDBRANCH   1  24
TORSDOF 7
ENDMDL
