MODEL 1
REMARK minimizedAffinity -9.95441246
REMARK  8 active torsions:
REMARK  status: ('A' for Active; 'I' for Inactive)
REMARK    1  A    between atoms: C5_5  and  C6_6 
REMARK    2  A    between atoms: C6_6  and  O1_9 
REMARK    3  A    between atoms: C14_16  and  C15_17 
REMARK    4  A    between atoms: C16_19  and  O4_20 
REMARK    5  A    between atoms: C17_21  and  C18_22 
REMARK    6  A    between atoms: C19_24  and  O6_25 
REMARK    7  A    between atoms: C21_27  and  C22_28 
REMARK    8  A    between atoms: C22_28  and  C23_29 
ROOT
HETATM    1  C1  UNL     1      -5.819  46.696 -22.411  1.00  0.00     0.043 C 
HETATM    2  C2  UNL     1      -4.752  47.124 -21.430  1.00  0.00    -0.087 C 
HETATM    3  C3  UNL     1      -4.394  46.315 -20.415  1.00  0.00    -0.024 C 
HETATM    4  C4  UNL     1      -3.363  46.371 -19.310  1.00  0.00     0.035 C 
HETATM    5  C5  UNL     1      -2.574  47.621 -18.784  1.00  0.00     0.023 C 
HETATM    6  C9  UNL     1      -1.494  48.051 -19.832  1.00  0.00     0.011 C 
HETATM    7  C10 UNL     1      -1.053  49.459 -20.266  1.00  0.00     0.039 C 
HETATM    8  C11 UNL     1      -1.778  50.415 -21.275  1.00  0.00     0.068 C 
HETATM    9  C12 UNL     1      -2.867  51.258 -20.566  1.00  0.00     0.047 C 
HETATM   10  O2  UNL     1      -0.734  51.420 -21.512  1.00  0.00    -0.338 OA
HETATM   11  C13 UNL     1      -0.641  52.101 -22.699  1.00  0.00     0.095 A 
HETATM   12  C14 UNL     1       0.430  53.022 -22.782  1.00  0.00     0.070 A 
HETATM   13  C16 UNL     1       0.667  53.716 -23.972  1.00  0.00     0.097 A 
HETATM   14  C17 UNL     1      -0.131  53.443 -25.088  1.00  0.00     0.069 A 
HETATM   15  C19 UNL     1      -1.175  52.505 -25.002  1.00  0.00     0.091 A 
HETATM   16  C20 UNL     1      -1.504  51.864 -23.796  1.00  0.00     0.015 A 
HETATM   17  C21 UNL     1      -2.720  50.959 -23.549  1.00  0.00     0.031 C 
HETATM   18  C26 UNL     1      -2.172  49.784 -22.669  1.00  0.00     0.029 C 
HETATM   19  C27 UNL     1      -3.006  48.482 -22.664  1.00  0.00     0.012 C 
HETATM   20  C28 UNL     1      -4.180  48.482 -21.702  1.00  0.00     0.034 C 
ENDROOT
BRANCH   5  21
HETATM   21  C6  UNL     1      -3.383  48.621 -17.890  1.00  0.00     0.054 C 
HETATM   22  C7  UNL     1      -2.471  49.691 -17.250  1.00  0.00     0.045 C 
HETATM   23  C8  UNL     1      -4.442  49.382 -18.698  1.00  0.00     0.045 C 
BRANCH  21  24
HETATM   24  O1  UNL     1      -4.045  47.977 -16.816  1.00  0.00    -0.390 OA
HETATM   25  H14 UNL     1      -3.364  47.685 -16.181  1.00  0.00     0.210 HD
ENDBRANCH  21  24
ENDBRANCH   5  21
BRANCH  17  26
HETATM   26  C22 UNL     1      -3.628  50.552 -24.739  1.00  0.00     0.014 C 
BRANCH  26  27
HETATM   27  C23 UNL     1      -3.454  49.080 -25.201  1.00  0.00    -0.022 C 
HETATM   28  C24 UNL     1      -4.812  48.490 -25.589  1.00  0.00     0.009 C 
HETATM   29  C25 UNL     1      -2.498  48.972 -26.396  1.00  0.00     0.009 C 
ENDBRANCH  26  27
ENDBRANCH  17  26
BRANCH  12  30
HETATM   30  C15 UNL     1       1.285  53.223 -21.578  1.00  0.00     0.275 C 
HETATM   31  O3  UNL     1       1.707  54.308 -21.199  1.00  0.00    -0.301 OA
ENDBRANCH  12  30
BRANCH  13  32
HETATM   32  O4  UNL     1       1.659  54.658 -24.023  1.00  0.00    -0.359 OA
HETATM   33  H23 UNL     1       1.746  55.000 -24.939  1.00  0.00     0.217 HD
ENDBRANCH  13  32
BRANCH  15  34
HETATM   34  O6  UNL     1      -1.833  52.202 -26.162  1.00  0.00    -0.359 OA
HETATM   35  H25 UNL     1      -1.542  51.306 -26.422  1.00  0.00     0.217 HD
ENDBRANCH  15  34
BRANCH  14  36
HETATM   36  C18 UNL     1       0.118  54.131 -26.375  1.00  0.00     0.275 C 
HETATM   37  O5  UNL     1       0.225  55.353 -26.431  1.00  0.00    -0.301 OA
ENDBRANCH  14  36
TORSDOF 8
ENDMDL
