MODEL 1
REMARK minimizedAffinity -8.04047489
REMARK CNNscore 0.83280021
REMARK CNNaffinity 7.06540442
REMARK  5 active torsions:
REMARK  status: ('A' for Active; 'I' for Inactive)
REMARK    1  A    between atoms: C2_2  and  C3_3 
REMARK    2  A    between atoms: C4_5  and  C5_6 
REMARK    3  A    between atoms: C5_6  and  C6_7 
REMARK    4  A    between atoms: C6_7  and  C7_8 
REMARK    5  A    between atoms: C7_8  and  C9_10 
ROOT
HETATM    1  C9  UNL     1       4.861  56.097  -8.143  1.00  0.00    -0.001 C 
HETATM    2  C10 UNL     1       5.710  55.180  -9.069  1.00  0.00     0.007 C 
HETATM    3  C11 UNL     1       4.732  54.364  -9.933  1.00  0.00     0.015 C 
HETATM    4  C12 UNL     1       3.368  55.059  -9.757  1.00  0.00    -0.004 C 
HETATM    5  C13 UNL     1       3.333  56.261 -10.748  1.00  0.00     0.021 C 
HETATM    6  C14 UNL     1       2.079  54.294 -10.007  1.00  0.00     0.007 C 
HETATM    7  C15 UNL     1       0.907  54.615  -9.403  1.00  0.00     0.007 C 
HETATM    8  C16 UNL     1       0.937  55.741  -8.378  1.00  0.00     0.157 C 
HETATM    9  O2  UNL     1      -0.109  56.182  -7.904  1.00  0.00    -0.293 OA
HETATM   10  C17 UNL     1       2.259  56.351  -7.925  1.00  0.00     0.094 C 
HETATM   11  C18 UNL     1       3.447  55.443  -8.234  1.00  0.00    -0.022 C 
HETATM   12  C19 UNL     1       3.385  54.205  -7.282  1.00  0.00     0.017 C 
HETATM   13  C20 UNL     1      -0.448  53.907  -9.666  1.00  0.00    -0.007 C 
HETATM   14  C21 UNL     1      -0.742  53.052  -8.409  1.00  0.00     0.021 C 
HETATM   15  C22 UNL     1      -1.617  54.927  -9.870  1.00  0.00     0.022 C 
HETATM   16  C23 UNL     1      -2.759  54.470 -10.776  1.00  0.00     0.080 C 
HETATM   17  C24 UNL     1      -2.878  52.968 -10.826  1.00  0.00     0.135 C 
HETATM   18  O3  UNL     1      -3.939  52.408 -10.556  1.00  0.00    -0.297 OA
HETATM   19  C25 UNL     1      -1.641  52.204 -11.311  1.00  0.00     0.018 C 
HETATM   20  C26 UNL     1      -1.637  50.784 -10.712  1.00  0.00     0.023 C 
HETATM   21  C27 UNL     1      -1.786  52.059 -12.841  1.00  0.00     0.023 C 
HETATM   22  C28 UNL     1      -0.362  53.046 -10.977  1.00  0.00     0.021 C 
HETATM   23  C29 UNL     1       0.927  52.227 -11.013  1.00  0.00     0.090 C 
HETATM   24  C30 UNL     1       2.104  53.164 -10.985  1.00  0.00     0.157 C 
HETATM   25  O4  UNL     1       3.064  52.983 -11.728  1.00  0.00    -0.293 OA
ENDROOT
BRANCH   1  26
HETATM   26  C7  UNL     1       5.535  56.301  -6.752  1.00  0.00    -0.014 C 
HETATM   27  C8  UNL     1       5.365  57.738  -6.240  1.00  0.00     0.010 C 
BRANCH  26  28
HETATM   28  C6  UNL     1       7.052  55.961  -6.814  1.00  0.00     0.008 C 
BRANCH  28  29
HETATM   29  C5  UNL     1       7.894  56.614  -5.706  1.00  0.00     0.028 C 
BRANCH  29  30
HETATM   30  C4  UNL     1       9.222  55.959  -5.463  1.00  0.00    -0.017 C 
HETATM   31  C2  UNL     1      10.367  56.564  -5.090  1.00  0.00    -0.028 C 
HETATM   32  C1  UNL     1      10.560  58.016  -4.792  1.00  0.00     0.051 C 
BRANCH  31  33
HETATM   33  C3  UNL     1      11.584  55.712  -4.921  1.00  0.00     0.265 C 
HETATM   34  O1  UNL     1      12.726  56.151  -4.871  1.00  0.00    -0.302 OA
ENDBRANCH  31  33
ENDBRANCH  29  30
ENDBRANCH  28  29
ENDBRANCH  26  28
ENDBRANCH   1  26
TORSDOF 5
ENDMDL
