MODEL 1
REMARK minimizedAffinity -6.54522657
REMARK CNNscore 0.605118811
REMARK CNNaffinity 6.36019468
REMARK  10 active torsions:
REMARK  status: ('A' for Active; 'I' for Inactive)
REMARK    1  A    between atoms: C2_2  and  C3_3 
REMARK    2  A    between atoms: C2_2  and  C9_11 
REMARK    3  A    between atoms: C3_3  and  C4_4 
REMARK    4  A    between atoms: C4_4  and  C5_5 
REMARK    5  A    between atoms: C5_5  and  O1_6 
REMARK    6  A    between atoms: C5_5  and  C6_7 
REMARK    7  A    between atoms: C6_7  and  O2_10 
REMARK    8  A    between atoms: C12_14  and  C13_15 
REMARK    9  A    between atoms: C13_15  and  O4_17 
REMARK   10  A    between atoms: C21_25  and  O5_26 
ROOT
HETATM    1  C9  UNL     1     -14.981   7.285  24.387  1.00  0.00    -0.001 C 
HETATM    2  C10 UNL     1     -13.945   6.944  25.491  1.00  0.00     0.007 C 
HETATM    3  C11 UNL     1     -12.623   7.650  25.087  1.00  0.00     0.022 C 
HETATM    4  C12 UNL     1     -13.047   8.668  24.006  1.00  0.00     0.057 C 
HETATM    5  C14 UNL     1     -11.955   9.209  23.039  1.00  0.00     0.010 C 
HETATM    6  C15 UNL     1     -10.774   9.914  23.731  1.00  0.00     0.010 C 
HETATM    7  C16 UNL     1     -10.812  11.442  23.739  1.00  0.00     0.036 C 
HETATM    8  C17 UNL     1     -10.332  12.114  22.458  1.00  0.00    -0.067 C 
HETATM    9  C18 UNL     1     -10.641  11.656  21.218  1.00  0.00    -0.076 C 
HETATM   10  C19 UNL     1     -10.082  12.293  19.957  1.00  0.00     0.037 C 
HETATM   11  C20 UNL     1      -8.915  13.243  20.173  1.00  0.00     0.037 C 
HETATM   12  C21 UNL     1      -9.192  14.167  21.347  1.00  0.00     0.130 C 
HETATM   13  C22 UNL     1      -9.433  13.366  22.668  1.00  0.00     0.002 C 
HETATM   14  C23 UNL     1     -10.050  14.333  23.707  1.00  0.00     0.022 C 
HETATM   15  C24 UNL     1      -8.056  12.894  23.197  1.00  0.00     0.022 C 
HETATM   16  C25 UNL     1     -11.589  10.517  20.868  1.00  0.00     0.039 C 
HETATM   17  C26 UNL     1     -12.619  10.051  21.912  1.00  0.00    -0.005 C 
HETATM   18  C27 UNL     1     -13.762   9.283  21.194  1.00  0.00     0.006 C 
HETATM   19  C28 UNL     1     -14.790   8.623  22.130  1.00  0.00     0.011 C 
HETATM   20  C29 UNL     1     -14.095   7.781  23.209  1.00  0.00    -0.022 C 
HETATM   21  C30 UNL     1     -13.432   6.570  22.477  1.00  0.00     0.017 C 
ENDROOT
BRANCH   1  22
HETATM   22  C2  UNL     1     -16.186   6.325  24.181  1.00  0.00    -0.014 C 
HETATM   23  C1  UNL     1     -17.352   6.755  25.091  1.00  0.00     0.010 C 
BRANCH  22  24
HETATM   24  C3  UNL     1     -16.023   4.791  24.234  1.00  0.00     0.007 C 
BRANCH  24  25
HETATM   25  C4  UNL     1     -14.656   4.244  24.632  1.00  0.00     0.035 C 
BRANCH  25  26
HETATM   26  C5  UNL     1     -14.666   2.831  25.238  1.00  0.00     0.151 C 
BRANCH  26  27
HETATM   27  O1  UNL     1     -15.744   2.122  24.593  1.00  0.00    -0.393 OA
HETATM   28  H10 UNL     1     -15.342   1.407  24.061  1.00  0.00     0.210 HD
ENDBRANCH  26  27
BRANCH  26  29
HETATM   29  C6  UNL     1     -13.369   1.970  25.144  1.00  0.00     0.076 C 
HETATM   30  C7  UNL     1     -12.709   1.744  26.505  1.00  0.00     0.048 C 
HETATM   31  C8  UNL     1     -12.354   2.501  24.131  1.00  0.00     0.048 C 
BRANCH  29  32
HETATM   32  O2  UNL     1     -13.757   0.664  24.661  1.00  0.00    -0.388 OA
HETATM   33  H17 UNL     1     -14.590   0.423  25.111  1.00  0.00     0.210 HD
ENDBRANCH  29  32
ENDBRANCH  26  29
ENDBRANCH  25  26
ENDBRANCH  24  25
ENDBRANCH  22  24
ENDBRANCH   1  22
BRANCH   4  34
HETATM   34  C13 UNL     1     -13.674   9.891  24.739  1.00  0.00     0.149 C 
HETATM   35  O3  UNL     1     -14.545  10.642  24.334  1.00  0.00    -0.649 OA
BRANCH  34  36
HETATM   36  O4  UNL     1     -13.131  10.141  25.948  1.00  0.00    -0.776 OA
HETATM   37  H23 UNL     1     -13.615  10.937  26.257  1.00  0.00     0.167 HD
ENDBRANCH  34  36
ENDBRANCH   4  34
BRANCH  12  38
HETATM   38  O5  UNL     1     -10.310  15.005  21.033  1.00  0.00    -0.394 OA
HETATM   39  H34 UNL     1     -10.095  15.489  20.219  1.00  0.00     0.210 HD
ENDBRANCH  12  38
TORSDOF 10
ENDMDL
