MODEL 1
REMARK minimizedAffinity -8.57176495
REMARK CNNscore 0.661304355
REMARK CNNaffinity 7.51194
REMARK  13 active torsions:
REMARK  status: ('A' for Active; 'I' for Inactive)
REMARK    1  A    between atoms: C19_21  and  O3_22 
REMARK    2  A    between atoms: C19_21  and  C20_23 
REMARK    3  A    between atoms: C20_23  and  C21_25 
REMARK    4  A    between atoms: C21_25  and  O5_26 
REMARK    5  A    between atoms: O5_26  and  C22_27 
REMARK    6  A    between atoms: C22_27  and  C23_29 
REMARK    7  A    between atoms: C23_29  and  C24_30 
REMARK    8  A    between atoms: C24_30  and  C25_31 
REMARK       I    between atoms: C25_31  and  N1_33 
REMARK    9  A    between atoms: N1_33  and  C26_34 
REMARK   10  A    between atoms: C26_34  and  C27_35 
REMARK   11  A    between atoms: C26_34  and  C34_42 
REMARK   12  A    between atoms: C27_35  and  C28_36 
REMARK   13  A    between atoms: C34_42  and  O9_44 
ROOT
HETATM    1  C20 UNL     1      -0.610  11.115  15.301  1.00  0.00     0.185 C 
HETATM    2  O4  UNL     1      -1.396  11.979  15.701  1.00  0.00    -0.292 OA
ENDROOT
BRANCH   1   3
HETATM    3  C19 UNL     1      -1.067  10.024  14.305  1.00  0.00     0.128 C 
HETATM    4  C14 UNL     1      -2.241   9.148  14.852  1.00  0.00     0.005 C 
HETATM    5  C13 UNL     1      -3.632   9.796  14.835  1.00  0.00     0.091 C 
HETATM    6  C15 UNL     1      -1.931   8.643  16.289  1.00  0.00     0.019 C 
HETATM    7  C16 UNL     1      -2.244   8.014  13.796  1.00  0.00     0.002 C 
HETATM    8  C12 UNL     1      -4.692   8.733  15.095  1.00  0.00     0.133 C 
HETATM    9  C11 UNL     1      -4.684   7.505  14.162  1.00  0.00     0.072 C 
HETATM   10  O2  UNL     1      -5.531   8.903  15.978  1.00  0.00    -0.297 OA
HETATM   11  C2  UNL     1      -5.799   6.432  14.442  1.00  0.00    -0.009 C 
HETATM   12  C10 UNL     1      -3.251   6.898  14.101  1.00  0.00     0.003 C 
HETATM   13  C1  UNL     1      -5.721   5.856  15.874  1.00  0.00     0.021 C 
HETATM   14  C3  UNL     1      -7.194   7.089  14.215  1.00  0.00     0.022 C 
HETATM   15  C7  UNL     1      -5.616   5.259  13.460  1.00  0.00    -0.067 C 
HETATM   16  C4  UNL     1      -8.330   6.086  14.067  1.00  0.00     0.084 C 
HETATM   17  C5  UNL     1      -8.031   5.117  12.958  1.00  0.00     0.149 C 
HETATM   18  O1  UNL     1      -8.911   4.604  12.272  1.00  0.00    -0.293 OA
HETATM   19  C6  UNL     1      -6.622   4.703  12.761  1.00  0.00     0.053 C 
HETATM   20  C8  UNL     1      -4.219   4.701  13.316  1.00  0.00     0.035 C 
HETATM   21  C9  UNL     1      -3.194   5.794  13.037  1.00  0.00     0.010 C 
HETATM   22  C17 UNL     1      -0.772   7.642  13.668  1.00  0.00     0.009 C 
HETATM   23  C18 UNL     1      -0.011   8.958  13.919  1.00  0.00     0.047 C 
BRANCH   3  24
HETATM   24  O3  UNL     1      -1.497  10.660  13.092  1.00  0.00    -0.381 OA
HETATM   25  H25 UNL     1      -0.965  11.474  12.959  1.00  0.00     0.211 HD
ENDBRANCH   3  24
ENDBRANCH   1   3
BRANCH   1  26
HETATM   26  C21 UNL     1       0.839  11.121  15.802  1.00  0.00     0.260 C 
BRANCH  26  27
HETATM   27  O5  UNL     1       1.288  10.186  16.774  1.00  0.00    -0.314 OA
BRANCH  27  28
HETATM   28  C22 UNL     1       2.618   9.915  16.774  1.00  0.00     0.259 C 
HETATM   29  O6  UNL     1       3.436  10.526  17.451  1.00  0.00    -0.265 OA
BRANCH  28  30
HETATM   30  C23 UNL     1       3.002   8.812  15.815  1.00  0.00     0.120 C 
BRANCH  30  31
HETATM   31  C24 UNL     1       3.607   9.282  14.497  1.00  0.00     0.112 C 
BRANCH  31  32
HETATM   32  C25 UNL     1       4.442   8.204  13.834  1.00  0.00     0.218 C 
HETATM   33  O7  UNL     1       5.307   7.565  14.419  1.00  0.00    -0.274 OA
HETATM   34  N1  UNL     1       4.116   8.010  12.510  1.00  0.00    -0.346 N 
HETATM   35  H32 UNL     1       3.681   8.793  12.033  1.00  0.00     0.163 HD
BRANCH  34  36
HETATM   36  C26 UNL     1       4.927   7.123  11.661  1.00  0.00     0.186 C 
BRANCH  36  37
HETATM   37  C27 UNL     1       4.012   6.228  10.818  1.00  0.00     0.074 C 
BRANCH  37  38
HETATM   38  C28 UNL     1       2.899   6.974  10.123  1.00  0.00    -0.056 A 
HETATM   39  C29 UNL     1       2.966   7.232   8.747  1.00  0.00     0.007 A 
HETATM   40  C30 UNL     1       1.932   7.920   8.107  1.00  0.00     0.001 A 
HETATM   41  C31 UNL     1       0.826   8.354   8.833  1.00  0.00     0.000 A 
HETATM   42  C32 UNL     1       0.749   8.101  10.201  1.00  0.00     0.001 A 
HETATM   43  C33 UNL     1       1.781   7.415  10.845  1.00  0.00     0.007 A 
ENDBRANCH  37  38
ENDBRANCH  36  37
BRANCH  36  44
HETATM   44  C34 UNL     1       5.763   8.021  10.754  1.00  0.00     0.163 C 
HETATM   45  O8  UNL     1       5.412   9.108  10.314  1.00  0.00    -0.648 OA
BRANCH  44  46
HETATM   46  O9  UNL     1       6.968   7.508  10.443  1.00  0.00    -0.775 OA
HETATM   47  H41 UNL     1       7.395   8.180   9.871  1.00  0.00     0.167 HD
ENDBRANCH  44  46
ENDBRANCH  36  44
ENDBRANCH  34  36
ENDBRANCH  31  32
ENDBRANCH  30  31
ENDBRANCH  28  30
ENDBRANCH  27  28
ENDBRANCH  26  27
ENDBRANCH   1  26
TORSDOF 13
ENDMDL
