MODEL 1
REMARK minimizedAffinity -8.96880436
REMARK CNNscore 0.532502413
REMARK CNNaffinity 7.63397455
REMARK  13 active torsions:
REMARK  status: ('A' for Active; 'I' for Inactive)
REMARK    1  A    between atoms: C2_2  and  C3_3 
REMARK    2  A    between atoms: C4_5  and  C5_6 
REMARK    3  A    between atoms: C5_6  and  C6_7 
REMARK    4  A    between atoms: C6_7  and  C7_8 
REMARK    5  A    between atoms: C7_8  and  C9_10 
REMARK    6  A    between atoms: C17_18  and  C18_19 
REMARK    7  A    between atoms: C18_19  and  O2_21 
REMARK    8  A    between atoms: C18_19  and  C20_22 
REMARK    9  A    between atoms: C20_22  and  O3_23 
REMARK   10  A    between atoms: C21_24  and  C22_25 
REMARK   11  A    between atoms: C22_25  and  C23_26 
REMARK   12  A    between atoms: C23_26  and  C24_27 
REMARK   13  A    between atoms: C24_27  and  O5_29 
ROOT
HETATM    1  C9  UNL     1      -5.358   7.698  15.298  1.00  0.00    -0.002 C 
HETATM    2  C10 UNL     1      -5.801   8.310  13.960  1.00  0.00     0.006 C 
HETATM    3  C11 UNL     1      -4.508   8.563  13.154  1.00  0.00     0.011 C 
HETATM    4  C12 UNL     1      -3.328   8.037  14.021  1.00  0.00    -0.032 C 
HETATM    5  C13 UNL     1      -2.793   9.255  14.847  1.00  0.00     0.016 C 
HETATM    6  C14 UNL     1      -2.092   7.478  13.238  1.00  0.00     0.004 C 
HETATM    7  C15 UNL     1      -1.691   8.307  12.020  1.00  0.00     0.007 C 
HETATM    8  C16 UNL     1      -0.282   7.896  11.618  1.00  0.00     0.009 C 
HETATM    9  C17 UNL     1      -0.185   6.453  11.075  1.00  0.00     0.031 C 
HETATM   10  C21 UNL     1      -1.109   5.413  11.814  1.00  0.00    -0.025 A 
HETATM   11  C25 UNL     1      -1.035   5.150  13.307  1.00  0.00     0.021 A 
HETATM   12  C26 UNL     1      -2.169   6.012  12.818  1.00  0.00    -0.027 A 
HETATM   13  C27 UNL     1      -3.575   5.493  12.777  1.00  0.00     0.011 C 
HETATM   14  C28 UNL     1      -4.304   5.645  14.103  1.00  0.00     0.011 C 
HETATM   15  C29 UNL     1      -4.037   6.948  14.915  1.00  0.00    -0.032 C 
HETATM   16  C30 UNL     1      -3.242   6.585  16.180  1.00  0.00     0.016 C 
ENDROOT
BRANCH   1  17
HETATM   17  C7  UNL     1      -6.460   7.031  16.173  1.00  0.00    -0.014 C 
HETATM   18  C8  UNL     1      -6.483   5.502  16.205  1.00  0.00     0.010 C 
BRANCH  17  19
HETATM   19  C6  UNL     1      -7.887   7.515  15.795  1.00  0.00     0.008 C 
BRANCH  19  20
HETATM   20  C5  UNL     1      -8.358   7.077  14.403  1.00  0.00     0.028 C 
BRANCH  20  21
HETATM   21  C4  UNL     1      -8.033   5.628  14.154  1.00  0.00    -0.017 C 
HETATM   22  C2  UNL     1      -8.113   4.970  12.982  1.00  0.00    -0.028 C 
HETATM   23  C1  UNL     1      -8.566   5.511  11.661  1.00  0.00     0.051 C 
BRANCH  22  24
HETATM   24  C3  UNL     1      -7.719   3.532  12.986  1.00  0.00     0.265 C 
HETATM   25  O1  UNL     1      -8.520   2.626  12.783  1.00  0.00    -0.302 OA
ENDBRANCH  22  24
ENDBRANCH  20  21
ENDBRANCH  19  20
ENDBRANCH  17  19
ENDBRANCH   1  17
BRANCH  10  26
HETATM   26  C22 UNL     1      -1.544   4.258  10.873  1.00  0.00     0.021 C 
BRANCH  26  27
HETATM   27  C23 UNL     1      -1.801   2.869  11.463  1.00  0.00     0.111 C 
BRANCH  27  28
HETATM   28  C24 UNL     1      -0.884   1.768  11.013  1.00  0.00     0.139 C 
HETATM   29  O4  UNL     1      -1.241   0.656  10.659  1.00  0.00    -0.650 OA
BRANCH  28  30
HETATM   30  O5  UNL     1       0.407   2.126  10.916  1.00  0.00    -0.776 OA
HETATM   31  H39 UNL     1       0.834   1.305  10.586  1.00  0.00     0.167 HD
ENDBRANCH  28  30
ENDBRANCH  27  28
ENDBRANCH  26  27
ENDBRANCH  10  26
BRANCH   9  32
HETATM   32  C18 UNL     1       1.321   6.034  10.856  1.00  0.00     0.080 C 
HETATM   33  C19 UNL     1       1.795   6.355   9.424  1.00  0.00     0.048 C 
BRANCH  32  34
HETATM   34  O2  UNL     1       1.460   4.604  10.989  1.00  0.00    -0.388 OA
HETATM   35  H31 UNL     1       0.909   4.185  10.304  1.00  0.00     0.210 HD
ENDBRANCH  32  34
BRANCH  32  36
HETATM   36  C20 UNL     1       2.327   6.657  11.847  1.00  0.00     0.201 C 
BRANCH  36  37
HETATM   37  O3  UNL     1       3.635   6.138  11.618  1.00  0.00    -0.398 OA
HETATM   38  H34 UNL     1       3.628   5.916  10.661  1.00  0.00     0.209 HD
ENDBRANCH  36  37
ENDBRANCH  32  36
ENDBRANCH   9  32
TORSDOF 13
ENDMDL
