MODEL 1
REMARK minimizedAffinity -6.89119005
REMARK CNNscore 0.570176601
REMARK CNNaffinity 6.55613327
REMARK  10 active torsions:
REMARK  status: ('A' for Active; 'I' for Inactive)
REMARK    1  A    between atoms: C2_2  and  C3_4 
REMARK    2  A    between atoms: C10_12  and  O3_13 
REMARK    3  A    between atoms: C13_16  and  C14_17 
REMARK    4  A    between atoms: C14_17  and  C16_19 
REMARK    5  A    between atoms: C16_19  and  C17_20 
REMARK    6  A    between atoms: C17_20  and  C18_21 
REMARK    7  A    between atoms: C26_29  and  C27_30 
REMARK    8  A    between atoms: C27_30  and  C28_31 
REMARK    9  A    between atoms: C28_31  and  C29_32 
REMARK   10  A    between atoms: C29_32  and  O4_33 
ROOT
HETATM    1  C3  UNL     1      -1.411   6.264  12.778  1.00  0.00     0.151 A 
HETATM    2  O2  UNL     1      -2.764   5.946  13.167  1.00  0.00    -0.360 OA
HETATM    3  C4  UNL     1      -1.760   5.760  14.158  1.00  0.00     0.166 A 
HETATM    4  C5  UNL     1      -1.674   6.728  15.278  1.00  0.00     0.041 C 
HETATM    5  C6  UNL     1      -2.304   8.113  15.000  1.00  0.00     0.006 C 
HETATM    6  C7  UNL     1      -2.089   8.683  13.518  1.00  0.00    -0.030 C 
HETATM    7  C8  UNL     1      -3.456   8.756  12.766  1.00  0.00     0.016 C 
HETATM    8  C9  UNL     1      -1.539  10.153  13.539  1.00  0.00     0.042 C 
HETATM    9  C10 UNL     1      -2.091  11.146  14.590  1.00  0.00     0.128 C 
HETATM   10  C11 UNL     1      -2.636  10.515  15.893  1.00  0.00    -0.006 C 
HETATM   11  C12 UNL     1      -4.191  10.380  15.767  1.00  0.00     0.019 C 
HETATM   12  C13 UNL     1      -2.356  11.253  17.256  1.00  0.00     0.001 C 
HETATM   13  C22 UNL     1      -2.474  10.098  18.298  1.00  0.00     0.007 C 
HETATM   14  C23 UNL     1      -2.436   8.768  17.529  1.00  0.00     0.011 C 
HETATM   15  C24 UNL     1      -1.915   9.135  16.126  1.00  0.00    -0.029 C 
HETATM   16  C25 UNL     1      -0.357   9.232  16.256  1.00  0.00     0.016 C 
HETATM   17  C26 UNL     1      -1.072   7.759  12.689  1.00  0.00     0.039 C 
ENDROOT
BRANCH  12  18
HETATM   18  C14 UNL     1      -3.213  12.497  17.661  1.00  0.00    -0.013 C 
HETATM   19  C15 UNL     1      -2.366  13.768  17.795  1.00  0.00     0.010 C 
BRANCH  18  20
HETATM   20  C16 UNL     1      -3.968  12.219  18.991  1.00  0.00     0.008 C 
BRANCH  20  21
HETATM   21  C17 UNL     1      -4.584  13.469  19.632  1.00  0.00     0.028 C 
BRANCH  21  22
HETATM   22  C18 UNL     1      -5.584  13.097  20.693  1.00  0.00    -0.025 C 
HETATM   23  C19 UNL     1      -5.760  13.670  21.900  1.00  0.00    -0.091 C 
HETATM   24  C20 UNL     1      -4.933  14.799  22.452  1.00  0.00     0.042 C 
HETATM   25  C21 UNL     1      -6.838  13.181  22.831  1.00  0.00     0.042 C 
ENDBRANCH  21  22
ENDBRANCH  20  21
ENDBRANCH  18  20
ENDBRANCH  12  18
BRANCH   9  26
HETATM   26  O3  UNL     1      -1.033  12.064  14.880  1.00  0.00    -0.395 OA
HETATM   27  H14 UNL     1      -0.814  12.532  14.056  1.00  0.00     0.210 HD
ENDBRANCH   9  26
BRANCH  17  28
HETATM   28  C27 UNL     1      -0.894   8.214  11.209  1.00  0.00     0.011 C 
BRANCH  28  29
HETATM   29  C28 UNL     1       0.540   8.410  10.701  1.00  0.00     0.027 C 
BRANCH  29  30
HETATM   30  C29 UNL     1       0.695   8.323   9.189  1.00  0.00     0.164 C 
BRANCH  30  31
HETATM   31  O4  UNL     1      -0.280   9.162   8.583  1.00  0.00    -0.401 OA
HETATM   32  H48 UNL     1      -0.248   8.994   7.626  1.00  0.00     0.209 HD
ENDBRANCH  30  31
ENDBRANCH  29  30
ENDBRANCH  28  29
ENDBRANCH  17  28
BRANCH   1  33
HETATM   33  C2  UNL     1      -0.750   5.250  11.907  1.00  0.00     0.160 C 
HETATM   34  C1  UNL     1       0.722   5.037  12.112  1.00  0.00     0.094 C 
HETATM   35  O1  UNL     1      -1.402   4.668  11.047  1.00  0.00    -0.295 OA
ENDBRANCH   1  33
TORSDOF 10
ENDMDL
