MODEL 1
REMARK minimizedAffinity -8.86825752
REMARK  7 active torsions:
REMARK  status: ('A' for Active; 'I' for Inactive)
REMARK    1  A    between atoms: O1_2  and  C2_3 
REMARK    2  A    between atoms: C2_3  and  C3_4 
REMARK       I    between atoms: C3_4  and  N1_6 
REMARK    3  A    between atoms: N1_6  and  C4_7 
REMARK    4  A    between atoms: C7_10  and  C8_11 
REMARK    5  A    between atoms: C9_15  and  C10_16 
REMARK    6  A    between atoms: N3_20  and  C14_21 
REMARK    7  A    between atoms: C14_21  and  C15_22 
ROOT
HETATM    1  C15 UNL     1      -5.788   3.955  12.716  1.00  0.00    -0.029 A 
HETATM    2  C16 UNL     1      -6.774   3.011  12.385  1.00  0.00     0.009 A 
HETATM    3  C17 UNL     1      -6.433   1.808  11.770  1.00  0.00     0.002 A 
HETATM    4  C18 UNL     1      -5.100   1.538  11.464  1.00  0.00     0.022 A 
HETATM    5  C19 UNL     1      -4.107   2.472  11.770  1.00  0.00     0.045 A 
HETATM    6  C20 UNL     1      -2.736   2.195  11.443  1.00  0.00     0.099 C 
HETATM    7  N4  UNL     1      -1.627   1.974  11.177  1.00  0.00    -0.191 NA
HETATM    8  C21 UNL     1      -4.450   3.678  12.395  1.00  0.00     0.031 A 
ENDROOT
BRANCH   1   9
HETATM    9  C14 UNL     1      -6.163   5.274  13.364  1.00  0.00     0.312 C 
BRANCH   9  10
HETATM   10  N3  UNL     1      -5.003   5.997  13.904  1.00  0.00     0.105 N 
HETATM   11  C10 UNL     1      -4.828   7.336  13.287  1.00  0.00     0.299 C 
HETATM   12  C11 UNL     1      -5.731   8.261  14.103  1.00  0.00     0.046 C 
HETATM   13  C12 UNL     1      -5.876   7.593  15.463  1.00  0.00     0.033 C 
HETATM   14  C13 UNL     1      -5.149   6.264  15.343  1.00  0.00     0.274 C 
BRANCH  11  15
HETATM   15  C9  UNL     1      -3.388   7.757  13.331  1.00  0.00     0.182 A 
HETATM   16  O3  UNL     1      -3.141   9.004  13.822  1.00  0.00    -0.220 OA
HETATM   17  N2  UNL     1      -1.768   9.210  13.711  1.00  0.00    -0.242 N 
HETATM   18  C8  UNL     1      -1.316   8.074  13.159  1.00  0.00     0.139 A 
ATOM     19  H2  UNL     1      -1.232  10.034  13.984  1.00  0.00     0.196 HD
HETATM   20  N5  UNL     1      -2.300   7.139  12.926  1.00  0.00    -0.321 N 
ATOM     21  H5  UNL     1      -2.207   6.200  12.536  1.00  0.00     0.169 HD
BRANCH  18  22
HETATM   22  C7  UNL     1       0.072   7.836  12.809  1.00  0.00     0.025 A 
HETATM   23  C6  UNL     1       0.677   8.423  11.699  1.00  0.00     0.020 A 
HETATM   24  C5  UNL     1       2.010   8.130  11.391  1.00  0.00     0.050 A 
HETATM   25  C4  UNL     1       2.715   7.260  12.210  1.00  0.00     0.107 A 
HETATM   26  N6  UNL     1       2.159   6.685  13.296  1.00  0.00    -0.351 N 
HETATM   27  C22 UNL     1       0.861   6.980  13.567  1.00  0.00     0.105 A 
ATOM     28  H6  UNL     1       2.694   6.052  13.891  1.00  0.00     0.166 HD
BRANCH  25  29
HETATM   29  N1  UNL     1       4.033   6.876  11.996  1.00  0.00    -0.311 N 
HETATM   30  C3  UNL     1       4.651   6.529  10.817  1.00  0.00     0.246 C 
HETATM   31  O2  UNL     1       4.149   6.519   9.697  1.00  0.00    -0.271 OA
HETATM   32  H6  UNL     1       4.606   6.906  12.833  1.00  0.00     0.170 HD
BRANCH  30  33
HETATM   33  C2  UNL     1       6.094   6.070  11.046  1.00  0.00     0.270 C 
BRANCH  33  34
HETATM   34  O1  UNL     1       7.060   7.031  10.635  1.00  0.00    -0.387 OA
HETATM   35  C1  UNL     1       6.598   8.363  10.844  1.00  0.00     0.202 C 
ENDBRANCH  33  34
ENDBRANCH  30  33
ENDBRANCH  25  29
ENDBRANCH  18  22
ENDBRANCH  11  15
ENDBRANCH   9  10
ENDBRANCH   1   9
TORSDOF 7
ENDMDL
