MODEL 1
REMARK minimizedAffinity -7.84268904
REMARK CNNscore 0.765996099
REMARK CNNaffinity 7.05457687
REMARK  6 active torsions:
REMARK  status: ('A' for Active; 'I' for Inactive)
REMARK    1  A    between atoms: C2_2  and  C30_32 
REMARK    2  A    between atoms: C3_3  and  C4_4 
REMARK    3  A    between atoms: C4_4  and  C5_5 
REMARK    4  A    between atoms: C5_5  and  C6_6 
REMARK    5  A    between atoms: C6_6  and  C8_8 
REMARK    6  A    between atoms: C30_32  and  O3_33 
ROOT
HETATM    1  C8  UNL     1       4.857  55.829  -8.446  1.00  0.00    -0.002 C 
HETATM    2  C9  UNL     1       5.681  54.835  -9.308  1.00  0.00     0.007 C 
HETATM    3  C10 UNL     1       4.670  54.009 -10.126  1.00  0.00     0.015 C 
HETATM    4  C11 UNL     1       3.331  54.763 -10.002  1.00  0.00    -0.005 C 
HETATM    5  C12 UNL     1       3.349  55.905 -11.064  1.00  0.00     0.021 C 
HETATM    6  C13 UNL     1       2.015  54.038 -10.245  1.00  0.00    -0.000 C 
HETATM    7  C14 UNL     1       0.873  54.418  -9.613  1.00  0.00    -0.060 C 
HETATM    8  C15 UNL     1       0.896  55.556  -8.578  1.00  0.00     0.036 C 
HETATM    9  C16 UNL     1       2.260  56.201  -8.247  1.00  0.00     0.015 C 
HETATM   10  C17 UNL     1       3.420  55.231  -8.492  1.00  0.00    -0.028 C 
HETATM   11  C18 UNL     1       3.292  54.057  -7.477  1.00  0.00     0.016 C 
HETATM   12  C19 UNL     1      -0.502  53.731  -9.852  1.00  0.00    -0.014 C 
HETATM   13  C20 UNL     1      -0.761  52.808  -8.640  1.00  0.00     0.020 C 
HETATM   14  C21 UNL     1      -1.626  54.795  -9.955  1.00  0.00     0.021 C 
HETATM   15  C22 UNL     1      -2.957  54.323 -10.532  1.00  0.00     0.080 C 
HETATM   16  C23 UNL     1      -3.027  52.849 -10.850  1.00  0.00     0.135 C 
HETATM   17  O1  UNL     1      -4.070  52.229 -10.635  1.00  0.00    -0.297 OA
HETATM   18  C24 UNL     1      -1.827  52.203 -11.553  1.00  0.00     0.018 C 
HETATM   19  C25 UNL     1      -2.101  52.300 -13.068  1.00  0.00     0.023 C 
HETATM   20  C26 UNL     1      -1.792  50.705 -11.183  1.00  0.00     0.023 C 
HETATM   21  C27 UNL     1      -0.498  52.963 -11.212  1.00  0.00     0.020 C 
HETATM   22  C28 UNL     1       0.747  52.085 -11.342  1.00  0.00     0.090 C 
HETATM   23  C29 UNL     1       1.995  52.919 -11.236  1.00  0.00     0.157 C 
HETATM   24  O2  UNL     1       2.974  52.657 -11.931  1.00  0.00    -0.293 OA
ENDROOT
BRANCH   1  25
HETATM   25  C6  UNL     1       5.567  56.256  -7.124  1.00  0.00    -0.014 C 
HETATM   26  C7  UNL     1       5.307  57.688  -6.642  1.00  0.00     0.010 C 
BRANCH  25  27
HETATM   27  C5  UNL     1       7.082  55.941  -7.172  1.00  0.00     0.008 C 
BRANCH  27  28
HETATM   28  C4  UNL     1       7.750  55.746  -5.799  1.00  0.00     0.028 C 
BRANCH  28  29
HETATM   29  C3  UNL     1       8.506  56.949  -5.306  1.00  0.00    -0.022 C 
HETATM   30  C2  UNL     1       9.827  57.060  -5.042  1.00  0.00    -0.064 C 
HETATM   31  C1  UNL     1      10.823  55.939  -5.185  1.00  0.00     0.045 C 
BRANCH  30  32
HETATM   32  C30 UNL     1      10.464  58.337  -4.534  1.00  0.00     0.197 C 
BRANCH  32  33
HETATM   33  O3  UNL     1      10.354  59.408  -5.462  1.00  0.00    -0.397 OA
HETATM   34  H46 UNL     1      10.835  59.125  -6.258  1.00  0.00     0.209 HD
ENDBRANCH  32  33
ENDBRANCH  30  32
ENDBRANCH  28  29
ENDBRANCH  27  28
ENDBRANCH  25  27
ENDBRANCH   1  25
TORSDOF 6
ENDMDL
