MODEL 1
REMARK minimizedAffinity -9.41866398
REMARK  8 active torsions:
REMARK  status: ('A' for Active; 'I' for Inactive)
REMARK    1  A    between atoms: C2_2  and  O1_3 
REMARK    2  A    between atoms: O1_3  and  C3_4 
REMARK    3  A    between atoms: C3_4  and  C4_6 
REMARK    4  A    between atoms: C4_6  and  O3_7 
REMARK    5  A    between atoms: C6_11  and  C7_12 
REMARK    6  A    between atoms: C7_12  and  C8_13 
REMARK    7  A    between atoms: C19_25  and  C20_26 
REMARK    8  A    between atoms: C23_29  and  O7_30 
ROOT
HETATM    1  C4  UNL     1      -2.374  52.170 -26.142  1.00  0.00     0.291 A 
HETATM    2  O4  UNL     1      -2.723  52.068 -27.520  1.00  0.00    -0.265 OA
HETATM    3  C5  UNL     1      -3.017  50.779 -27.820  1.00  0.00     0.293 A 
HETATM    4  O5  UNL     1      -3.343  50.373 -28.920  1.00  0.00    -0.259 OA
HETATM    5  C6  UNL     1      -2.889  49.944 -26.621  1.00  0.00     0.034 A 
HETATM    6  C19 UNL     1      -2.480  50.763 -25.648  1.00  0.00     0.037 A 
ENDROOT
BRANCH   5   7
HETATM    7  C7  UNL     1      -3.158  48.482 -26.656  1.00  0.00     0.084 C 
BRANCH   7   8
HETATM    8  C8  UNL     1      -4.637  48.179 -26.644  1.00  0.00    -0.053 A 
HETATM    9  C9  UNL     1      -5.313  47.876 -27.833  1.00  0.00     0.010 A 
HETATM   10  C10 UNL     1      -6.670  47.553 -27.808  1.00  0.00     0.038 A 
HETATM   11  C11 UNL     1      -7.365  47.523 -26.600  1.00  0.00     0.076 A 
HETATM   12  O6  UNL     1      -8.689  47.186 -26.687  1.00  0.00    -0.340 OA
HETATM   13  C17 UNL     1      -6.714  47.840 -25.406  1.00  0.00    -0.024 A 
HETATM   14  C12 UNL     1      -9.376  46.914 -25.451  1.00  0.00     0.061 C 
HETATM   15  C13 UNL     1     -10.868  47.131 -25.746  1.00  0.00     0.046 C 
HETATM   16  C14 UNL     1      -9.163  45.439 -25.077  1.00  0.00     0.046 C 
HETATM   17  C15 UNL     1      -8.949  47.879 -24.335  1.00  0.00     0.042 C 
HETATM   18  C16 UNL     1      -7.447  47.816 -24.098  1.00  0.00     0.044 C 
HETATM   19  C18 UNL     1      -5.347  48.153 -25.433  1.00  0.00     0.017 A 
ENDBRANCH   7   8
ENDBRANCH   5   7
BRANCH   6  20
HETATM   20  C20 UNL     1      -2.129  50.360 -24.287  1.00  0.00    -0.023 A 
HETATM   21  C21 UNL     1      -2.684  49.188 -23.746  1.00  0.00     0.015 A 
HETATM   22  C22 UNL     1      -2.363  48.780 -22.449  1.00  0.00     0.037 A 
HETATM   23  C23 UNL     1      -1.483  49.543 -21.691  1.00  0.00     0.065 A 
HETATM   24  C24 UNL     1      -0.921  50.703 -22.211  1.00  0.00     0.037 A 
HETATM   25  C25 UNL     1      -1.242  51.112 -23.507  1.00  0.00     0.015 A 
BRANCH  23  26
HETATM   26  O7  UNL     1      -1.141  49.186 -20.422  1.00  0.00    -0.361 OA
HETATM   27  H24 UNL     1      -1.602  48.363 -20.191  1.00  0.00     0.217 HD
ENDBRANCH  23  26
ENDBRANCH   6  20
BRANCH   1  28
HETATM   28  C3  UNL     1      -0.879  52.614 -26.011  1.00  0.00     0.328 C 
HETATM   29  O2  UNL     1      -0.505  53.694 -25.562  1.00  0.00    -0.259 OA
BRANCH  28  30
HETATM   30  O1  UNL     1      -0.043  51.664 -26.527  1.00  0.00    -0.317 OA
BRANCH  30  31
HETATM   31  C2  UNL     1       1.082  52.185 -27.241  1.00  0.00     0.174 C 
HETATM   32  C1  UNL     1       2.335  51.544 -26.679  1.00  0.00     0.034 C 
ENDBRANCH  30  31
ENDBRANCH  28  30
ENDBRANCH   1  28
BRANCH   1  33
HETATM   33  O3  UNL     1      -3.319  53.019 -25.516  1.00  0.00    -0.353 OA
HETATM   34  H6  UNL     1      -4.071  52.471 -25.246  1.00  0.00     0.214 HD
ENDBRANCH   1  33
TORSDOF 8
ENDMDL
