MODEL 1
REMARK minimizedAffinity -7.45223188
REMARK CNNscore 0.551128268
REMARK CNNaffinity 6.24062681
REMARK  8 active torsions:
REMARK  status: ('A' for Active; 'I' for Inactive)
REMARK    1  A    between atoms: C2_2  and  C3_3 
REMARK    2  A    between atoms: C2_2  and  C9_12 
REMARK    3  A    between atoms: C3_3  and  C4_4 
REMARK    4  A    between atoms: C4_4  and  C5_5 
REMARK    5  A    between atoms: C6_6  and  C7_7 
REMARK    6  A    between atoms: C6_6  and  C8_9 
REMARK    7  A    between atoms: C7_7  and  O1_8 
REMARK    8  A    between atoms: C8_9  and  O3_11 
ROOT
HETATM    1  C9  UNL     1       7.492   9.401  15.178  1.00  0.00    -0.002 C 
HETATM    2  C10 UNL     1       8.542   9.793  14.100  1.00  0.00     0.006 C 
HETATM    3  C11 UNL     1       7.839   9.699  12.725  1.00  0.00     0.011 C 
HETATM    4  C12 UNL     1       6.345   9.538  13.053  1.00  0.00    -0.032 C 
HETATM    5  C13 UNL     1       5.784  10.983  13.304  1.00  0.00     0.016 C 
HETATM    6  C14 UNL     1       5.474   8.824  11.982  1.00  0.00     0.004 C 
HETATM    7  C15 UNL     1       5.491   9.519  10.610  1.00  0.00     0.007 C 
HETATM    8  C16 UNL     1       4.465   8.990   9.598  1.00  0.00     0.007 C 
HETATM    9  C17 UNL     1       3.585   7.824  10.090  1.00  0.00     0.010 C 
HETATM   10  C18 UNL     1       2.475   7.370   9.069  1.00  0.00     0.018 C 
HETATM   11  C19 UNL     1       2.515   5.838   8.871  1.00  0.00     0.023 C 
HETATM   12  C20 UNL     1       2.631   7.983   7.660  1.00  0.00     0.023 C 
HETATM   13  C21 UNL     1       1.076   7.719   9.599  1.00  0.00     0.135 C 
HETATM   14  O4  UNL     1       0.215   8.244   8.885  1.00  0.00    -0.297 OA
HETATM   15  C22 UNL     1       0.716   7.313  11.011  1.00  0.00     0.080 C 
HETATM   16  C23 UNL     1       1.938   7.120  11.896  1.00  0.00     0.018 C 
HETATM   17  C24 UNL     1       3.026   8.092  11.504  1.00  0.00    -0.026 A 
HETATM   18  C25 UNL     1       2.906   9.489  12.081  1.00  0.00     0.021 A 
HETATM   19  C26 UNL     1       4.049   8.595  12.537  1.00  0.00    -0.027 A 
HETATM   20  C27 UNL     1       3.979   8.014  13.960  1.00  0.00     0.011 C 
HETATM   21  C28 UNL     1       5.010   8.577  14.956  1.00  0.00     0.011 C 
HETATM   22  C29 UNL     1       6.417   8.638  14.345  1.00  0.00    -0.032 C 
HETATM   23  C30 UNL     1       6.897   7.177  14.093  1.00  0.00     0.016 C 
ENDROOT
BRANCH   1  24
HETATM   24  C2  UNL     1       8.033   8.734  16.477  1.00  0.00    -0.014 C 
HETATM   25  C1  UNL     1       9.377   8.009  16.350  1.00  0.00     0.010 C 
BRANCH  24  26
HETATM   26  C3  UNL     1       8.104   9.738  17.662  1.00  0.00     0.008 C 
BRANCH  26  27
HETATM   27  C4  UNL     1       8.845  11.049  17.374  1.00  0.00     0.028 C 
BRANCH  27  28
HETATM   28  C5  UNL     1      10.250  11.102  17.918  1.00  0.00    -0.011 C 
HETATM   29  C6  UNL     1      10.677  11.625  19.091  1.00  0.00     0.035 C 
BRANCH  29  30
HETATM   30  C7  UNL     1       9.846  12.323  20.135  1.00  0.00     0.209 C 
BRANCH  30  31
HETATM   31  O1  UNL     1       9.682  11.527  21.308  1.00  0.00    -0.396 OA
HETATM   32  H12 UNL     1       9.428  10.634  21.008  1.00  0.00     0.209 HD
ENDBRANCH  30  31
ENDBRANCH  29  30
BRANCH  29  33
HETATM   33  C8  UNL     1      12.113  11.506  19.463  1.00  0.00     0.173 C 
HETATM   34  O2  UNL     1      12.627  11.941  20.481  1.00  0.00    -0.646 OA
BRANCH  33  35
HETATM   35  O3  UNL     1      12.862  10.890  18.528  1.00  0.00    -0.773 OA
HETATM   36  H13 UNL     1      13.762  10.892  18.914  1.00  0.00     0.167 HD
ENDBRANCH  33  35
ENDBRANCH  29  33
ENDBRANCH  27  28
ENDBRANCH  26  27
ENDBRANCH  24  26
ENDBRANCH   1  24
TORSDOF 8
ENDMDL
