MODEL 1
REMARK minimizedAffinity -9.06859493
REMARK  10 active torsions:
REMARK  status: ('A' for Active; 'I' for Inactive)
REMARK    1  A    between atoms: C12_14  and  C13_15 
REMARK    2  A    between atoms: C13_15  and  C15_17 
REMARK    3  A    between atoms: C15_17  and  C16_18 
REMARK    4  A    between atoms: C16_18  and  C17_19 
REMARK    5  A    between atoms: C18_20  and  C20_22 
REMARK    6  A    between atoms: C20_22  and  O3_23 
REMARK    7  A    between atoms: C26_29  and  C27_30 
REMARK    8  A    between atoms: C27_30  and  C28_31 
REMARK    9  A    between atoms: C28_31  and  C29_32 
REMARK   10  A    between atoms: C29_32  and  O5_34 
ROOT
HETATM    1  C1  UNL     1       0.672  54.490 -24.015  1.00  0.00     0.025 C 
HETATM    2  C2  UNL     1       0.712  53.452 -23.171  1.00  0.00     0.015 C 
HETATM    3  C3  UNL     1       1.142  53.636 -21.763  1.00  0.00     0.289 C 
HETATM    4  O1  UNL     1       1.714  54.603 -21.298  1.00  0.00    -0.260 OA
HETATM    5  O2  UNL     1       0.810  52.500 -21.084  1.00  0.00    -0.311 OA
HETATM    6  C4  UNL     1      -0.013  51.658 -21.915  1.00  0.00     0.142 C 
HETATM    7  C5  UNL     1      -1.474  51.909 -21.563  1.00  0.00     0.039 C 
HETATM    8  C6  UNL     1      -2.498  51.180 -22.445  1.00  0.00     0.006 C 
HETATM    9  C7  UNL     1      -2.125  51.152 -23.957  1.00  0.00    -0.027 A 
HETATM   10  C8  UNL     1      -3.087  50.312 -24.833  1.00  0.00     0.011 C 
HETATM   11  C9  UNL     1      -3.617  49.003 -24.222  1.00  0.00     0.011 C 
HETATM   12  C10 UNL     1      -4.105  49.214 -22.784  1.00  0.00    -0.032 C 
HETATM   13  C11 UNL     1      -5.328  50.177 -22.818  1.00  0.00     0.016 C 
HETATM   14  C12 UNL     1      -4.481  47.920 -21.995  1.00  0.00    -0.002 C 
HETATM   15  C21 UNL     1      -4.267  48.328 -20.515  1.00  0.00     0.006 C 
HETATM   16  C22 UNL     1      -3.436  49.632 -20.521  1.00  0.00     0.011 C 
HETATM   17  C23 UNL     1      -2.875  49.747 -21.951  1.00  0.00    -0.032 C 
HETATM   18  C24 UNL     1      -1.613  48.828 -22.011  1.00  0.00     0.016 C 
HETATM   19  C25 UNL     1      -1.847  52.479 -24.627  1.00  0.00     0.022 A 
HETATM   20  C26 UNL     1      -0.670  51.566 -24.394  1.00  0.00    -0.021 A 
HETATM   21  C31 UNL     1       0.357  52.009 -23.344  1.00  0.00     0.063 C 
ENDROOT
BRANCH  14  22
HETATM   22  C13 UNL     1      -5.817  47.175 -22.324  1.00  0.00    -0.014 C 
HETATM   23  C14 UNL     1      -5.766  45.781 -21.666  1.00  0.00     0.010 C 
BRANCH  22  24
HETATM   24  C15 UNL     1      -7.109  47.907 -21.882  1.00  0.00     0.008 C 
BRANCH  24  25
HETATM   25  C16 UNL     1      -8.365  47.554 -22.694  1.00  0.00     0.028 C 
BRANCH  25  26
HETATM   26  C17 UNL     1      -8.466  48.218 -24.039  1.00  0.00    -0.022 C 
HETATM   27  C18 UNL     1      -9.416  48.009 -24.975  1.00  0.00    -0.064 C 
HETATM   28  C19 UNL     1     -10.517  46.992 -24.862  1.00  0.00     0.045 C 
BRANCH  27  29
HETATM   29  C20 UNL     1      -9.420  48.789 -26.265  1.00  0.00     0.197 C 
BRANCH  29  30
HETATM   30  O3  UNL     1      -9.633  50.162 -25.972  1.00  0.00    -0.397 OA
HETATM   31  H29 UNL     1      -8.985  50.399 -25.285  1.00  0.00     0.209 HD
ENDBRANCH  29  30
ENDBRANCH  27  29
ENDBRANCH  25  26
ENDBRANCH  24  25
ENDBRANCH  22  24
ENDBRANCH  14  22
BRANCH  20  32
HETATM   32  C27 UNL     1      -0.026  50.826 -25.579  1.00  0.00     0.021 C 
BRANCH  32  33
HETATM   33  C28 UNL     1       1.275  51.442 -26.099  1.00  0.00     0.112 C 
BRANCH  33  34
HETATM   34  C29 UNL     1       1.149  52.254 -27.364  1.00  0.00     0.258 C 
HETATM   35  O4  UNL     1       1.532  51.860 -28.462  1.00  0.00    -0.265 OA
BRANCH  34  36
HETATM   36  O5  UNL     1       0.615  53.480 -27.129  1.00  0.00    -0.326 OA
HETATM   37  C30 UNL     1      -0.518  53.784 -27.942  1.00  0.00     0.213 C 
ENDBRANCH  34  36
ENDBRANCH  33  34
ENDBRANCH  32  33
ENDBRANCH  20  32
TORSDOF 10
ENDMDL
