MODEL 1
REMARK minimizedAffinity -7.74875975
REMARK CNNscore 0.534466684
REMARK CNNaffinity 6.87060928
REMARK  9 active torsions:
REMARK  status: ('A' for Active; 'I' for Inactive)
REMARK    1  A    between atoms: C12_14  and  C13_15 
REMARK    2  A    between atoms: C13_15  and  C15_17 
REMARK    3  A    between atoms: C15_17  and  C16_18 
REMARK    4  A    between atoms: C16_18  and  C17_19 
REMARK    5  A    between atoms: C18_20  and  C20_22 
REMARK    6  A    between atoms: C26_29  and  C27_30 
REMARK    7  A    between atoms: C27_30  and  C28_31 
REMARK    8  A    between atoms: C28_31  and  C29_32 
REMARK    9  A    between atoms: C29_32  and  O5_34 
ROOT
HETATM    1  C1  UNL     1       2.206   8.499  10.472  1.00  0.00     0.025 C 
HETATM    2  C2  UNL     1       1.174   7.717  10.816  1.00  0.00     0.015 C 
HETATM    3  C3  UNL     1       0.186   7.291   9.801  1.00  0.00     0.289 C 
HETATM    4  O1  UNL     1       0.022   7.777   8.697  1.00  0.00    -0.260 OA
HETATM    5  O2  UNL     1      -0.514   6.251  10.322  1.00  0.00    -0.311 OA
HETATM    6  C4  UNL     1       0.069   5.854  11.571  1.00  0.00     0.142 C 
HETATM    7  C5  UNL     1      -1.015   5.330  12.497  1.00  0.00     0.039 C 
HETATM    8  C6  UNL     1      -2.061   6.414  12.796  1.00  0.00     0.006 C 
HETATM    9  C7  UNL     1      -1.395   7.606  13.521  1.00  0.00    -0.027 A 
HETATM   10  C8  UNL     1      -1.927   7.914  14.927  1.00  0.00     0.011 C 
HETATM   11  C9  UNL     1      -3.452   7.818  15.131  1.00  0.00     0.011 C 
HETATM   12  C10 UNL     1      -4.207   7.068  14.024  1.00  0.00    -0.032 C 
HETATM   13  C11 UNL     1      -4.549   8.085  12.894  1.00  0.00     0.016 C 
HETATM   14  C12 UNL     1      -5.521   6.332  14.452  1.00  0.00    -0.002 C 
HETATM   15  C21 UNL     1      -5.655   5.225  13.363  1.00  0.00     0.006 C 
HETATM   16  C22 UNL     1      -4.293   5.090  12.662  1.00  0.00     0.011 C 
HETATM   17  C23 UNL     1      -3.308   5.869  13.553  1.00  0.00    -0.032 C 
HETATM   18  C24 UNL     1      -2.886   4.888  14.694  1.00  0.00     0.016 C 
HETATM   19  C25 UNL     1      -1.006   8.820  12.698  1.00  0.00     0.022 A 
HETATM   20  C26 UNL     1       0.101   7.906  13.170  1.00  0.00    -0.021 A 
HETATM   21  C30 UNL     1       0.845   7.051  12.114  1.00  0.00     0.063 C 
ENDROOT
BRANCH  14  22
HETATM   22  C13 UNL     1      -6.845   7.134  14.643  1.00  0.00    -0.014 C 
HETATM   23  C14 UNL     1      -7.163   7.362  16.126  1.00  0.00     0.010 C 
BRANCH  22  24
HETATM   24  C15 UNL     1      -8.027   6.397  13.953  1.00  0.00     0.008 C 
BRANCH  24  25
HETATM   25  C16 UNL     1      -9.395   6.678  14.587  1.00  0.00     0.028 C 
BRANCH  25  26
HETATM   26  C17 UNL     1     -10.273   7.460  13.650  1.00  0.00    -0.017 C 
HETATM   27  C18 UNL     1     -11.617   7.428  13.575  1.00  0.00    -0.028 C 
HETATM   28  C19 UNL     1     -12.544   6.569  14.376  1.00  0.00     0.051 C 
BRANCH  27  29
HETATM   29  C20 UNL     1     -12.283   8.318  12.575  1.00  0.00     0.265 C 
HETATM   30  O3  UNL     1     -13.490   8.515  12.526  1.00  0.00    -0.302 OA
ENDBRANCH  27  29
ENDBRANCH  25  26
ENDBRANCH  24  25
ENDBRANCH  22  24
ENDBRANCH  14  22
BRANCH  20  31
HETATM   31  C27 UNL     1       0.997   8.381  14.323  1.00  0.00     0.021 C 
BRANCH  31  32
HETATM   32  C28 UNL     1       2.029   7.358  14.785  1.00  0.00     0.111 C 
BRANCH  32  33
HETATM   33  C29 UNL     1       2.794   7.845  15.986  1.00  0.00     0.139 C 
HETATM   34  O4  UNL     1       2.354   8.425  16.963  1.00  0.00    -0.650 OA
BRANCH  33  35
HETATM   35  O5  UNL     1       4.108   7.560  15.889  1.00  0.00    -0.776 OA
HETATM   36  H41 UNL     1       4.493   7.925  16.713  1.00  0.00     0.167 HD
ENDBRANCH  33  35
ENDBRANCH  32  33
ENDBRANCH  31  32
ENDBRANCH  20  31
TORSDOF 9
ENDMDL
