MODEL 1
REMARK minimizedAffinity -8.71183872
REMARK CNNscore 0.445867598
REMARK CNNaffinity 7.92636251
REMARK  15 active torsions:
REMARK  status: ('A' for Active; 'I' for Inactive)
REMARK    1  A    between atoms: C2_2  and  C3_3 
REMARK    2  A    between atoms: C3_3  and  C4_4 
REMARK    3  A    between atoms: C4_4  and  O1_5 
REMARK    4  A    between atoms: C4_4  and  C5_6 
REMARK    5  A    between atoms: C5_6  and  C6_7 
REMARK    6  A    between atoms: C6_7  and  O2_8 
REMARK    7  A    between atoms: C6_7  and  C7_9 
REMARK    8  A    between atoms: C7_9  and  C8_10 
REMARK    9  A    between atoms: C8_10  and  C9_12 
REMARK   10  A    between atoms: C9_12  and  C10_13 
REMARK   11  A    between atoms: C10_13  and  C11_14 
REMARK   12  A    between atoms: C25_29  and  O5_30 
REMARK   13  A    between atoms: C29_34  and  C30_35 
REMARK   14  A    between atoms: C30_35  and  N1_36 
REMARK   15  A    between atoms: C30_35  and  N2_37 
ROOT
HETATM    1  C11 UNL     1       0.728  52.504 -18.396  1.00  0.00    -0.055 A 
HETATM    2  C12 UNL     1       1.695  52.950 -19.299  1.00  0.00     0.010 A 
HETATM    3  C13 UNL     1       1.442  52.931 -20.667  1.00  0.00     0.041 A 
HETATM    4  C14 UNL     1       0.238  52.427 -21.168  1.00  0.00     0.120 A 
HETATM    5  O4  UNL     1       0.141  52.586 -22.537  1.00  0.00    -0.258 OA
HETATM    6  C15 UNL     1      -0.804  51.865 -23.100  1.00  0.00     0.061 C 
HETATM    7  C16 UNL     1      -1.705  51.131 -23.372  1.00  0.00    -0.064 C 
HETATM    8  C17 UNL     1      -2.792  50.158 -23.217  1.00  0.00     0.044 C 
HETATM    9  C18 UNL     1      -3.027  49.452 -24.567  1.00  0.00     0.024 C 
HETATM   10  C19 UNL     1      -3.854  50.438 -25.396  1.00  0.00     0.002 C 
HETATM   11  C20 UNL     1      -4.559  51.352 -24.399  1.00  0.00     0.002 C 
HETATM   12  C21 UNL     1      -4.135  50.880 -23.005  1.00  0.00     0.024 C 
HETATM   13  C22 UNL     1      -2.377  49.185 -22.041  1.00  0.00     0.135 C 
HETATM   14  C23 UNL     1      -3.405  48.095 -21.908  1.00  0.00    -0.093 C 
HETATM   15  C24 UNL     1      -4.389  47.396 -21.873  1.00  0.00    -0.069 C 
HETATM   16  C25 UNL     1      -5.757  46.839 -21.991  1.00  0.00     0.230 C 
HETATM   17  C26 UNL     1      -6.132  45.704 -21.053  1.00  0.00    -0.011 A 
HETATM   18  C27 UNL     1      -5.941  44.404 -21.582  1.00  0.00     0.012 A 
HETATM   19  C28 UNL     1      -6.391  43.262 -20.917  1.00  0.00     0.012 A 
HETATM   20  C29 UNL     1      -7.052  43.367 -19.693  1.00  0.00     0.004 A 
HETATM   21  C31 UNL     1      -7.178  44.641 -19.121  1.00  0.00     0.019 A 
HETATM   22  C32 UNL     1      -6.731  45.819 -19.766  1.00  0.00    -0.043 A 
HETATM   23  C33 UNL     1      -6.894  47.107 -18.963  1.00  0.00     0.080 C 
HETATM   24  C34 UNL     1      -5.638  47.434 -18.224  1.00  0.00    -0.025 C 
HETATM   25  C35 UNL     1      -5.041  46.765 -17.206  1.00  0.00     0.096 C 
HETATM   26  N3  UNL     1      -3.678  47.060 -17.005  1.00  0.00    -0.364 N 
ATOM     27  H3  UNL     1      -3.034  46.688 -16.306  1.00  0.00     0.165 HD
HETATM   28  C36 UNL     1      -3.457  47.927 -17.936  1.00  0.00     0.060 C 
HETATM   29  C37 UNL     1      -2.290  48.598 -18.513  1.00  0.00     0.123 C 
HETATM   30  N4  UNL     1      -2.699  49.336 -19.495  1.00  0.00    -0.335 N 
HETATM   31  C38 UNL     1      -4.204  49.270 -19.492  1.00  0.00     0.107 C 
HETATM   32  C39 UNL     1      -4.636  48.305 -18.686  1.00  0.00     0.015 C 
HETATM   33  C40 UNL     1      -1.940  49.899 -20.643  1.00  0.00     0.251 C 
HETATM   34  O6  UNL     1      -1.910  51.341 -20.684  1.00  0.00    -0.321 OA
HETATM   35  C41 UNL     1      -0.702  51.874 -20.276  1.00  0.00     0.106 A 
HETATM   36  C42 UNL     1      -0.463  51.956 -18.894  1.00  0.00     0.047 A 
ENDROOT
BRANCH   1  37
HETATM   37  C10 UNL     1       0.955  52.681 -16.907  1.00  0.00     0.046 C 
BRANCH  37  38
HETATM   38  C9  UNL     1       1.360  51.382 -16.210  1.00  0.00     0.083 C 
BRANCH  38  39
HETATM   39  C8  UNL     1       2.370  51.584 -15.094  1.00  0.00     0.129 C 
HETATM   40  O3  UNL     1       3.398  52.234 -15.284  1.00  0.00    -0.298 OA
BRANCH  39  41
HETATM   41  C7  UNL     1       2.092  50.908 -13.765  1.00  0.00     0.110 C 
BRANCH  41  42
HETATM   42  C6  UNL     1       1.677  51.923 -12.696  1.00  0.00     0.127 C 
BRANCH  42  43
HETATM   43  C5  UNL     1       2.892  52.608 -12.061  1.00  0.00     0.063 C 
BRANCH  43  44
HETATM   44  C4  UNL     1       2.943  52.500 -10.526  1.00  0.00     0.120 C 
BRANCH  44  45
HETATM   45  C3  UNL     1       3.528  53.739  -9.831  1.00  0.00     0.031 C 
BRANCH  45  46
HETATM   46  C2  UNL     1       4.032  54.831 -10.792  1.00  0.00    -0.002 C 
HETATM   47  C1  UNL     1       3.201  56.106 -10.782  1.00  0.00     0.005 C 
ENDBRANCH  45  46
ENDBRANCH  44  45
BRANCH  44  48
HETATM   48  O1  UNL     1       3.747  51.360 -10.220  1.00  0.00    -0.395 OA
HETATM   49  H9  UNL     1       3.257  50.561 -10.481  1.00  0.00     0.210 HD
ENDBRANCH  44  48
ENDBRANCH  43  44
ENDBRANCH  42  43
BRANCH  42  50
HETATM   50  O2  UNL     1       0.882  52.912 -13.357  1.00  0.00    -0.395 OA
HETATM   51  H13 UNL     1      -0.055  52.676 -13.231  1.00  0.00     0.210 HD
ENDBRANCH  42  50
ENDBRANCH  41  42
ENDBRANCH  39  41
ENDBRANCH  38  39
ENDBRANCH  37  38
ENDBRANCH   1  37
BRANCH  16  52
HETATM   52  O5  UNL     1      -6.657  47.942 -21.858  1.00  0.00    -0.379 OA
HETATM   53  H32 UNL     1      -6.892  48.197 -22.770  1.00  0.00     0.211 HD
ENDBRANCH  16  52
BRANCH  20  54
HETATM   54  C30 UNL     1      -7.585  42.124 -19.015  1.00  0.00     0.479 C 
BRANCH  54  55
HETATM   55  N1  UNL     1      -7.591  40.966 -19.879  1.00  0.00     0.116 N 
HETATM   56  H36 UNL     1      -6.628  40.648 -19.980  1.00  0.00     0.316 HD
HETATM   57  H37 UNL     1      -8.078  40.233 -19.366  1.00  0.00     0.316 HD
ENDBRANCH  54  55
BRANCH  54  58
HETATM   58  N2  UNL     1      -8.965  42.247 -18.654  1.00  0.00     0.116 N 
HETATM   59  H38 UNL     1      -9.500  42.318 -19.515  1.00  0.00     0.316 HD
HETATM   60  H39 UNL     1      -9.106  43.118 -18.149  1.00  0.00     0.316 HD
ENDBRANCH  54  58
ENDBRANCH  20  54
TORSDOF 15
ENDMDL
