MODEL 1
REMARK minimizedAffinity -6.92259264
REMARK CNNscore 0.708865941
REMARK CNNaffinity 6.92142248
REMARK  4 active torsions:
REMARK  status: ('A' for Active; 'I' for Inactive)
REMARK    1  A    between atoms: C4_4  and  C5_5 
REMARK    2  A    between atoms: C5_5  and  C6_7 
REMARK    3  A    between atoms: C6_7  and  C7_8 
REMARK    4  A    between atoms: C7_8  and  C9_10 
ROOT
HETATM    1  C9  UNL     1      -1.651  52.204 -10.527  1.00  0.00    -0.001 C 
HETATM    2  C10 UNL     1      -0.924  50.874 -10.849  1.00  0.00     0.007 C 
HETATM    3  C11 UNL     1       0.593  51.175 -10.829  1.00  0.00     0.015 C 
HETATM    4  C12 UNL     1       0.704  52.710 -10.695  1.00  0.00    -0.013 C 
HETATM    5  C13 UNL     1       0.633  53.272 -12.152  1.00  0.00     0.021 C 
HETATM    6  C14 UNL     1       1.964  53.301 -10.075  1.00  0.00    -0.070 C 
HETATM    7  C15 UNL     1       3.160  52.698 -10.162  1.00  0.00    -0.022 C 
HETATM    8  C16 UNL     1       4.442  53.252  -9.629  1.00  0.00     0.034 C 
HETATM    9  C17 UNL     1       4.394  54.655  -8.973  1.00  0.00     0.013 C 
HETATM   10  C18 UNL     1       4.714  54.661  -7.433  1.00  0.00     0.018 C 
HETATM   11  C19 UNL     1       6.126  54.083  -7.179  1.00  0.00     0.023 C 
HETATM   12  C20 UNL     1       3.703  53.882  -6.579  1.00  0.00     0.023 C 
HETATM   13  C21 UNL     1       4.743  56.112  -6.920  1.00  0.00     0.135 C 
HETATM   14  O2  UNL     1       5.135  56.397  -5.786  1.00  0.00    -0.297 OA
HETATM   15  C22 UNL     1       4.274  57.197  -7.858  1.00  0.00     0.080 C 
HETATM   16  C23 UNL     1       2.967  56.748  -8.488  1.00  0.00     0.017 C 
HETATM   17  C24 UNL     1       3.131  55.503  -9.408  1.00  0.00    -0.031 C 
HETATM   18  C25 UNL     1       3.382  56.015 -10.855  1.00  0.00     0.016 C 
HETATM   19  C26 UNL     1       1.817  54.635  -9.355  1.00  0.00     0.024 C 
HETATM   20  C27 UNL     1       0.518  55.395  -9.733  1.00  0.00     0.010 C 
HETATM   21  C28 UNL     1      -0.779  54.549  -9.745  1.00  0.00     0.011 C 
HETATM   22  C29 UNL     1      -0.540  53.026  -9.796  1.00  0.00    -0.029 C 
HETATM   23  C30 UNL     1      -0.404  52.500  -8.331  1.00  0.00     0.016 C 
ENDROOT
BRANCH   1  24
HETATM   24  C7  UNL     1      -3.050  52.132  -9.848  1.00  0.00    -0.007 C 
HETATM   25  C8  UNL     1      -4.051  53.041 -10.582  1.00  0.00     0.011 C 
BRANCH  24  26
HETATM   26  C6  UNL     1      -3.647  50.734  -9.581  1.00  0.00     0.087 C 
BRANCH  26  27
HETATM   27  C5  UNL     1      -4.634  50.166 -10.599  1.00  0.00     0.149 C 
HETATM   28  O1  UNL     1      -4.292  49.711 -11.684  1.00  0.00    -0.293 OA
BRANCH  27  29
HETATM   29  C4  UNL     1      -6.074  50.202 -10.178  1.00  0.00     0.052 C 
HETATM   30  C2  UNL     1      -6.890  49.156  -9.950  1.00  0.00    -0.084 C 
HETATM   31  C1  UNL     1      -6.538  47.702 -10.109  1.00  0.00     0.043 C 
HETATM   32  C3  UNL     1      -8.311  49.391  -9.494  1.00  0.00     0.043 C 
ENDBRANCH  27  29
ENDBRANCH  26  27
ENDBRANCH  24  26
ENDBRANCH   1  24
TORSDOF 4
ENDMDL
