MODEL 1
REMARK minimizedAffinity -8.68351555
REMARK CNNscore 0.44570595
REMARK CNNaffinity 6.32081413
REMARK  11 active torsions:
REMARK  status: ('A' for Active; 'I' for Inactive)
REMARK    1  A    between atoms: C3_3  and  O1_4 
REMARK    2  A    between atoms: N1_14  and  O2_16 
REMARK    3  A    between atoms: O2_16  and  C13_17 
REMARK    4  A    between atoms: C13_17  and  C14_18 
REMARK       I    between atoms: C14_18  and  N2_20 
REMARK    5  A    between atoms: N2_20  and  C15_21 
REMARK    6  A    between atoms: C15_21  and  C16_22 
REMARK    7  A    between atoms: C15_21  and  C17_25 
REMARK    8  A    between atoms: C16_22  and  O5_24 
REMARK    9  A    between atoms: C17_25  and  O6_26 
REMARK   10  A    between atoms: C17_25  and  C18_27 
REMARK   11  A    between atoms: C22_31  and  N3_32 
ROOT
HETATM    1  C1  UNL     1      -2.422  51.296 -20.250  1.00  0.00     0.015 C 
HETATM    2  C2  UNL     1      -2.645  50.891 -21.359  1.00  0.00    -0.078 C 
HETATM    3  C3  UNL     1      -2.895  50.395 -22.721  1.00  0.00     0.128 C 
HETATM    4  C4  UNL     1      -3.662  51.419 -23.572  1.00  0.00     0.052 C 
HETATM    5  C5  UNL     1      -4.499  50.602 -24.565  1.00  0.00     0.010 C 
HETATM    6  C6  UNL     1      -4.227  49.116 -24.263  1.00  0.00     0.002 C 
HETATM    7  C7  UNL     1      -5.380  48.142 -24.594  1.00  0.00    -0.004 C 
HETATM    8  C8  UNL     1      -5.830  48.297 -26.053  1.00  0.00     0.010 C 
HETATM    9  C9  UNL     1      -6.879  47.259 -26.419  1.00  0.00     0.035 C 
HETATM   10  C10 UNL     1      -8.065  47.305 -25.485  1.00  0.00    -0.069 C 
HETATM   11  C11 UNL     1      -9.307  47.324 -25.999  1.00  0.00     0.030 C 
HETATM   12  C12 UNL     1     -10.516  47.200 -25.146  1.00  0.00     0.032 C 
HETATM   13  N1  UNL     1     -11.672  47.154 -25.744  1.00  0.00    -0.271 N 
ATOM     14  H1  UNL     1     -11.799  47.250 -26.752  1.00  0.00     0.194 HD
HETATM   15  C24 UNL     1     -10.320  47.047 -23.653  1.00  0.00     0.060 C 
HETATM   16  C25 UNL     1      -9.030  47.716 -23.192  1.00  0.00     0.020 C 
HETATM   17  C26 UNL     1      -7.765  47.270 -23.983  1.00  0.00    -0.016 C 
HETATM   18  C27 UNL     1      -7.418  45.811 -23.603  1.00  0.00     0.020 C 
HETATM   19  C28 UNL     1      -6.591  48.271 -23.636  1.00  0.00     0.002 C 
HETATM   20  C29 UNL     1      -6.111  48.175 -22.174  1.00  0.00     0.007 C 
HETATM   21  C30 UNL     1      -5.022  49.199 -21.852  1.00  0.00     0.014 C 
HETATM   22  C31 UNL     1      -3.781  49.109 -22.781  1.00  0.00     0.003 C 
HETATM   23  C32 UNL     1      -2.973  47.840 -22.450  1.00  0.00     0.020 C 
ENDROOT
BRANCH   3  24
HETATM   24  O1  UNL     1      -1.620  50.166 -23.328  1.00  0.00    -0.377 OA
HETATM   25  H2  UNL     1      -1.741  50.101 -24.287  1.00  0.00     0.211 HD
ENDBRANCH   3  24
BRANCH  13  26
HETATM   26  O2  UNL     1     -12.722  46.956 -24.835  1.00  0.00    -0.271 OA
BRANCH  26  27
HETATM   27  C13 UNL     1     -13.915  46.708 -25.569  1.00  0.00     0.303 C 
BRANCH  27  28
HETATM   28  C14 UNL     1     -15.120  47.057 -24.712  1.00  0.00     0.244 C 
HETATM   29  O3  UNL     1     -15.123  47.997 -23.919  1.00  0.00    -0.271 OA
HETATM   30  N2  UNL     1     -16.183  46.198 -24.857  1.00  0.00    -0.342 N 
HETATM   31  H16 UNL     1     -16.178  45.521 -25.615  1.00  0.00     0.163 HD
BRANCH  30  32
HETATM   32  C15 UNL     1     -17.430  46.347 -24.101  1.00  0.00     0.216 C 
BRANCH  32  33
HETATM   33  C16 UNL     1     -18.641  46.039 -24.979  1.00  0.00     0.166 C 
HETATM   34  O4  UNL     1     -19.599  46.777 -25.160  1.00  0.00    -0.648 OA
BRANCH  33  35
HETATM   35  O5  UNL     1     -18.602  44.828 -25.582  1.00  0.00    -0.775 OA
HETATM   36  H18 UNL     1     -19.447  44.786 -26.078  1.00  0.00     0.167 HD
ENDBRANCH  33  35
ENDBRANCH  32  33
BRANCH  32  37
HETATM   37  C17 UNL     1     -17.502  45.429 -22.857  1.00  0.00     0.184 C 
BRANCH  37  38
HETATM   38  O6  UNL     1     -16.365  44.553 -22.811  1.00  0.00    -0.388 OA
HETATM   39  H20 UNL     1     -16.463  44.015 -22.005  1.00  0.00     0.210 HD
ENDBRANCH  37  38
BRANCH  37  40
HETATM   40  C18 UNL     1     -17.617  46.195 -21.547  1.00  0.00    -0.025 A 
HETATM   41  C19 UNL     1     -18.856  46.651 -21.066  1.00  0.00     0.010 A 
HETATM   42  C20 UNL     1     -18.951  47.324 -19.845  1.00  0.00     0.003 A 
HETATM   43  C21 UNL     1     -17.809  47.546 -19.076  1.00  0.00     0.036 A 
HETATM   44  C22 UNL     1     -16.572  47.088 -19.541  1.00  0.00     0.103 A 
HETATM   45  C23 UNL     1     -16.469  46.418 -20.770  1.00  0.00     0.045 A 
BRANCH  44  46
HETATM   46  N3  UNL     1     -15.366  47.317 -18.735  1.00  0.00    -0.116 N 
HETATM   47  O7  UNL     1     -14.927  48.475 -18.669  1.00  0.00    -0.532 OA
HETATM   48  O8  UNL     1     -14.864  46.343 -18.157  1.00  0.00    -0.532 OA
ENDBRANCH  44  46
ENDBRANCH  37  40
ENDBRANCH  32  37
ENDBRANCH  30  32
ENDBRANCH  27  28
ENDBRANCH  26  27
ENDBRANCH  13  26
TORSDOF 11
ENDMDL
