MODEL 1
REMARK minimizedAffinity -8.03500366
REMARK CNNscore 0.819544256
REMARK CNNaffinity 6.84733057
REMARK  7 active torsions:
REMARK  status: ('A' for Active; 'I' for Inactive)
REMARK    1  A    between atoms: C2_2  and  C30_32 
REMARK    2  A    between atoms: C3_3  and  C4_4 
REMARK    3  A    between atoms: C4_4  and  O1_5 
REMARK    4  A    between atoms: C4_4  and  C5_6 
REMARK    5  A    between atoms: C5_6  and  C6_7 
REMARK    6  A    between atoms: C6_7  and  C8_9 
REMARK    7  A    between atoms: C30_32  and  O4_34 
ROOT
HETATM    1  C8  UNL     1       5.773  55.575  -8.101  1.00  0.00    -0.002 C 
HETATM    2  C9  UNL     1       6.600  54.520  -8.875  1.00  0.00     0.006 C 
HETATM    3  C10 UNL     1       5.601  53.711  -9.729  1.00  0.00     0.011 C 
HETATM    4  C11 UNL     1       4.296  54.537  -9.717  1.00  0.00    -0.032 C 
HETATM    5  C12 UNL     1       4.451  55.633 -10.818  1.00  0.00     0.016 C 
HETATM    6  C13 UNL     1       3.002  53.717  -9.965  1.00  0.00     0.004 C 
HETATM    7  C14 UNL     1       2.806  53.280 -11.426  1.00  0.00     0.007 C 
HETATM    8  C15 UNL     1       1.581  52.378 -11.534  1.00  0.00     0.007 C 
HETATM    9  C16 UNL     1       0.292  53.173 -11.281  1.00  0.00     0.010 C 
HETATM   10  C17 UNL     1      -1.020  52.324 -11.297  1.00  0.00     0.018 C 
HETATM   11  C18 UNL     1      -1.576  52.256 -12.731  1.00  0.00     0.023 C 
HETATM   12  C19 UNL     1      -0.820  50.882 -10.792  1.00  0.00     0.023 C 
HETATM   13  C20 UNL     1      -2.105  52.985 -10.429  1.00  0.00     0.135 C 
HETATM   14  O2  UNL     1      -3.017  52.330  -9.918  1.00  0.00    -0.297 OA
HETATM   15  C21 UNL     1      -2.120  54.493 -10.306  1.00  0.00     0.080 C 
HETATM   16  C22 UNL     1      -0.746  55.111 -10.082  1.00  0.00     0.018 C 
HETATM   17  C23 UNL     1       0.360  54.074 -10.047  1.00  0.00    -0.026 A 
HETATM   18  C24 UNL     1       0.736  53.516  -8.702  1.00  0.00     0.021 A 
HETATM   19  C25 UNL     1       1.735  54.425  -9.413  1.00  0.00    -0.027 A 
HETATM   20  C26 UNL     1       1.916  55.842  -8.849  1.00  0.00     0.011 C 
HETATM   21  C27 UNL     1       3.231  56.161  -8.112  1.00  0.00     0.011 C 
HETATM   22  C28 UNL     1       4.303  55.074  -8.237  1.00  0.00    -0.032 C 
HETATM   23  C29 UNL     1       3.998  53.982  -7.177  1.00  0.00     0.016 C 
ENDROOT
BRANCH   1  24
HETATM   24  C6  UNL     1       6.355  56.113  -6.762  1.00  0.00    -0.011 C 
HETATM   25  C7  UNL     1       5.921  57.580  -6.574  1.00  0.00     0.010 C 
BRANCH  24  26
HETATM   26  C5  UNL     1       7.849  55.946  -6.381  1.00  0.00     0.040 C 
BRANCH  26  27
HETATM   27  C4  UNL     1       8.311  56.203  -4.941  1.00  0.00     0.142 C 
BRANCH  27  28
HETATM   28  C3  UNL     1       9.802  56.416  -4.896  1.00  0.00     0.018 C 
HETATM   29  C2  UNL     1      10.476  57.583  -4.833  1.00  0.00     0.010 C 
HETATM   30  C1  UNL     1       9.868  58.955  -4.823  1.00  0.00     0.055 C 
BRANCH  29  31
HETATM   31  C30 UNL     1      11.963  57.591  -4.756  1.00  0.00     0.171 C 
HETATM   32  O3  UNL     1      12.650  58.559  -4.475  1.00  0.00    -0.646 OA
BRANCH  31  33
HETATM   33  O4  UNL     1      12.530  56.402  -5.008  1.00  0.00    -0.773 OA
HETATM   34  H46 UNL     1      13.491  56.577  -4.918  1.00  0.00     0.167 HD
ENDBRANCH  31  33
ENDBRANCH  29  31
ENDBRANCH  27  28
BRANCH  27  35
HETATM   35  O1  UNL     1       8.029  55.077  -4.119  1.00  0.00    -0.392 OA
HETATM   36  H6  UNL     1       8.536  55.181  -3.297  1.00  0.00     0.210 HD
ENDBRANCH  27  35
ENDBRANCH  26  27
ENDBRANCH  24  26
ENDBRANCH   1  24
TORSDOF 7
ENDMDL
