MODEL 1
REMARK minimizedAffinity -8.65425777
REMARK  10 active torsions:
REMARK  status: ('A' for Active; 'I' for Inactive)
REMARK    1  A    between atoms: C5_5  and  C6_6 
REMARK    2  A    between atoms: C6_6  and  C8_8 
REMARK    3  A    between atoms: C8_8  and  O1_9 
REMARK    4  A    between atoms: C15_17  and  O3_18 
REMARK    5  A    between atoms: C18_21  and  O4_23 
REMARK    6  A    between atoms: O4_23  and  C20_24 
REMARK    7  A    between atoms: C20_24  and  C21_26 
REMARK    8  A    between atoms: C21_26  and  C22_27 
REMARK    9  A    between atoms: C21_26  and  O6_29 
REMARK   10  A    between atoms: O6_29  and  C24_30 
ROOT
HETATM    1  C1  UNL     1      -5.204  46.246 -21.559  1.00  0.00     0.015 C 
HETATM    2  C2  UNL     1      -5.137  47.495 -22.048  1.00  0.00    -0.082 C 
HETATM    3  C3  UNL     1      -6.376  48.215 -22.508  1.00  0.00     0.034 C 
HETATM    4  C4  UNL     1      -6.097  49.337 -23.505  1.00  0.00     0.010 C 
HETATM    5  C5  UNL     1      -4.882  49.115 -24.426  1.00  0.00    -0.001 C 
HETATM    6  C9  UNL     1      -3.573  48.822 -23.634  1.00  0.00     0.033 C 
HETATM    7  C10 UNL     1      -2.739  50.034 -23.198  1.00  0.00     0.162 C 
HETATM    8  O2  UNL     1      -3.539  50.554 -22.128  1.00  0.00    -0.376 OA
HETATM    9  C11 UNL     1      -3.711  49.448 -21.236  1.00  0.00     0.134 C 
HETATM   10  C12 UNL     1      -2.486  49.438 -20.284  1.00  0.00     0.068 C 
HETATM   11  C13 UNL     1      -2.085  50.844 -19.844  1.00  0.00    -0.059 C 
HETATM   12  C14 UNL     1      -2.854  51.508 -18.959  1.00  0.00     0.017 C 
HETATM   13  C15 UNL     1      -0.805  51.471 -20.377  1.00  0.00     0.146 C 
HETATM   14  C16 UNL     1      -0.472  51.497 -21.889  1.00  0.00     0.039 C 
HETATM   15  C17 UNL     1      -1.491  52.177 -22.838  1.00  0.00     0.044 C 
HETATM   16  C18 UNL     1      -2.120  51.230 -23.946  1.00  0.00     0.093 C 
HETATM   17  C19 UNL     1      -3.090  52.090 -24.761  1.00  0.00     0.049 C 
HETATM   18  C26 UNL     1      -3.824  48.225 -22.194  1.00  0.00     0.050 C 
ENDROOT
BRANCH  16  19
HETATM   19  O4  UNL     1      -0.970  50.837 -24.746  1.00  0.00    -0.306 OA
BRANCH  19  20
HETATM   20  C20 UNL     1      -0.914  51.097 -26.075  1.00  0.00     0.289 C 
HETATM   21  O5  UNL     1      -1.533  50.488 -26.937  1.00  0.00    -0.262 OA
BRANCH  20  22
HETATM   22  C21 UNL     1       0.098  52.212 -26.379  1.00  0.00     0.231 C 
BRANCH  22  23
HETATM   23  C22 UNL     1       1.437  51.881 -25.705  1.00  0.00     0.038 C 
HETATM   24  C23 UNL     1       2.539  51.502 -26.688  1.00  0.00     0.008 C 
ENDBRANCH  22  23
BRANCH  22  25
HETATM   25  O6  UNL     1      -0.295  53.528 -25.965  1.00  0.00    -0.306 OA
BRANCH  25  26
HETATM   26  C24 UNL     1      -0.159  54.489 -26.918  1.00  0.00     0.255 C 
HETATM   27  C25 UNL     1      -0.455  53.919 -28.271  1.00  0.00     0.126 C 
HETATM   28  O7  UNL     1       0.177  55.646 -26.710  1.00  0.00    -0.266 OA
ENDBRANCH  25  26
ENDBRANCH  22  25
ENDBRANCH  20  22
ENDBRANCH  19  20
ENDBRANCH  16  19
BRANCH   5  29
HETATM   29  C6  UNL     1      -5.117  48.100 -25.600  1.00  0.00     0.010 C 
HETATM   30  C7  UNL     1      -6.580  47.785 -25.928  1.00  0.00     0.012 C 
BRANCH  29  31
HETATM   31  C8  UNL     1      -4.352  48.517 -26.872  1.00  0.00     0.168 C 
BRANCH  31  32
HETATM   32  O1  UNL     1      -5.227  48.642 -27.989  1.00  0.00    -0.400 OA
HETATM   33  H14 UNL     1      -5.805  49.405 -27.831  1.00  0.00     0.209 HD
ENDBRANCH  31  32
ENDBRANCH  29  31
ENDBRANCH   5  29
BRANCH  13  34
HETATM   34  O3  UNL     1       0.275  50.778 -19.739  1.00  0.00    -0.391 OA
HETATM   35  H23 UNL     1       0.065  50.754 -18.790  1.00  0.00     0.210 HD
ENDBRANCH  13  34
TORSDOF 10
ENDMDL
