MODEL 1
REMARK minimizedAffinity -7.7764945
REMARK  5 active torsions:
REMARK  status: ('A' for Active; 'I' for Inactive)
REMARK    1  A    between atoms: C2_2  and  C11_13 
REMARK    2  A    between atoms: C3_3  and  C4_4 
REMARK    3  A    between atoms: C7_7  and  C8_8 
REMARK    4  A    between atoms: C8_8  and  O2_10 
REMARK    5  A    between atoms: C14_16  and  C15_17 
ROOT
HETATM    1  C1  UNL     1      -1.888  50.027 -22.154  1.00  0.00     0.049 C 
HETATM    2  C2  UNL     1      -0.969  50.936 -22.951  1.00  0.00    -0.044 C 
HETATM    3  C3  UNL     1      -0.084  51.760 -22.345  1.00  0.00     0.019 C 
ENDROOT
BRANCH   3   4
HETATM    4  C4  UNL     1       0.132  51.866 -20.900  1.00  0.00    -0.036 A 
HETATM    5  C5  UNL     1       0.847  52.951 -20.381  1.00  0.00     0.012 A 
HETATM    6  C6  UNL     1       1.061  53.059 -19.003  1.00  0.00     0.019 A 
HETATM    7  C7  UNL     1       0.564  52.080 -18.136  1.00  0.00     0.037 A 
HETATM    8  C9  UNL     1      -0.149  50.992 -18.656  1.00  0.00     0.019 A 
HETATM    9  C10 UNL     1      -0.363  50.885 -20.033  1.00  0.00     0.012 A 
BRANCH   7  10
HETATM   10  C8  UNL     1       0.764  52.151 -16.668  1.00  0.00     0.176 C 
HETATM   11  O1  UNL     1       0.379  51.331 -15.855  1.00  0.00    -0.646 OA
BRANCH  10  12
HETATM   12  O2  UNL     1       1.441  53.249 -16.286  1.00  0.00    -0.773 OA
HETATM   13  H7  UNL     1       1.496  53.161 -15.312  1.00  0.00     0.167 HD
ENDBRANCH  10  12
ENDBRANCH   7  10
ENDBRANCH   3   4
BRANCH   2  14
HETATM   14  C11 UNL     1      -0.997  50.981 -24.394  1.00  0.00     0.011 A 
HETATM   15  C12 UNL     1      -1.924  50.464 -25.284  1.00  0.00     0.020 A 
HETATM   16  C13 UNL     1      -1.598  50.718 -26.648  1.00  0.00     0.016 A 
HETATM   17  C14 UNL     1      -0.419  51.422 -26.784  1.00  0.00    -0.013 A 
HETATM   18  S1  UNL     1       0.276  51.762 -25.257  1.00  0.00    -0.094 SA
BRANCH  17  19
HETATM   19  C15 UNL     1       0.270  51.886 -28.046  1.00  0.00     0.017 C 
HETATM   20  C16 UNL     1       1.788  51.749 -27.923  1.00  0.00     0.015 C 
HETATM   21  C17 UNL     1      -0.119  53.327 -28.384  1.00  0.00     0.015 C 
ENDBRANCH  17  19
ENDBRANCH   2  14
TORSDOF 5
ENDMDL
