MODEL 1
REMARK minimizedAffinity -9.55829048
REMARK  10 active torsions:
REMARK  status: ('A' for Active; 'I' for Inactive)
REMARK    1  A    between atoms: C2_2  and  C3_3 
REMARK    2  A    between atoms: C3_3  and  C5_5 
REMARK    3  A    between atoms: C5_5  and  C6_6 
REMARK    4  A    between atoms: C6_6  and  C8_8 
REMARK    5  A    between atoms: C9_9  and  C11_11 
REMARK    6  A    between atoms: C12_13  and  C13_14 
REMARK    7  A    between atoms: C14_15  and  O2_16 
REMARK    8  A    between atoms: C15_17  and  C16_18 
REMARK    9  A    between atoms: C16_18  and  O3_19 
REMARK   10  A    between atoms: C21_25  and  O5_26 
ROOT
HETATM    1  C13 UNL     1      -0.416   5.988  13.428  1.00  0.00     0.068 C 
HETATM    2  C14 UNL     1       0.887   6.009  13.077  1.00  0.00     0.066 C 
HETATM    3  C15 UNL     1       1.440   5.296  11.855  1.00  0.00     0.098 C 
HETATM    4  C22 UNL     1       0.500   4.130  11.532  1.00  0.00     0.140 C 
HETATM    5  N1  UNL     1      -0.887   4.549  11.484  1.00  0.00    -0.352 N 
HETATM    6  C23 UNL     1      -1.807   3.735  10.710  1.00  0.00     0.152 C 
HETATM    7  C24 UNL     1      -1.409   5.337  12.508  1.00  0.00     0.254 C 
HETATM    8  O6  UNL     1      -2.614   5.534  12.627  1.00  0.00    -0.268 OA
ENDROOT
BRANCH   1   9
HETATM    9  C12 UNL     1      -0.940   6.618  14.700  1.00  0.00     0.163 C 
HETATM   10  O1  UNL     1      -2.229   7.188  14.432  1.00  0.00    -0.371 OA
HETATM   11  C11 UNL     1      -2.760   7.846  15.588  1.00  0.00     0.154 C 
HETATM   12  C27 UNL     1      -1.988   9.171  15.800  1.00  0.00     0.015 C 
HETATM   13  C26 UNL     1      -0.508   9.051  15.386  1.00  0.00     0.010 C 
HETATM   14  C28 UNL     1      -2.109   9.649  17.251  1.00  0.00     0.012 C 
HETATM   15  C25 UNL     1       0.011   7.616  15.388  1.00  0.00     0.037 C 
BRANCH  11  16
HETATM   16  C9  UNL     1      -4.279   7.891  15.410  1.00  0.00    -0.058 C 
HETATM   17  C8  UNL     1      -5.053   6.813  15.155  1.00  0.00    -0.018 C 
HETATM   18  C10 UNL     1      -4.843   9.286  15.547  1.00  0.00     0.046 C 
BRANCH  17  19
HETATM   19  C6  UNL     1      -6.563   6.759  15.015  1.00  0.00     0.005 C 
HETATM   20  C7  UNL     1      -7.150   6.143  16.286  1.00  0.00     0.014 C 
BRANCH  19  21
HETATM   21  C5  UNL     1      -6.916   5.987  13.723  1.00  0.00     0.012 C 
BRANCH  21  22
HETATM   22  C3  UNL     1      -6.499   4.498  13.710  1.00  0.00    -0.018 C 
HETATM   23  C4  UNL     1      -5.532   4.177  12.564  1.00  0.00     0.010 C 
BRANCH  22  24
HETATM   24  C2  UNL     1      -7.735   3.570  13.643  1.00  0.00    -0.000 C 
HETATM   25  C1  UNL     1      -7.565   2.328  12.776  1.00  0.00     0.005 C 
ENDBRANCH  22  24
ENDBRANCH  21  22
ENDBRANCH  19  21
ENDBRANCH  17  19
ENDBRANCH  11  16
ENDBRANCH   1   9
BRANCH   2  26
HETATM   26  O2  UNL     1       1.822   6.670  13.860  1.00  0.00    -0.364 OA
HETATM   27  H22 UNL     1       2.722   6.398  13.591  1.00  0.00     0.217 HD
ENDBRANCH   2  26
BRANCH   3  28
HETATM   28  C16 UNL     1       1.747   6.286  10.680  1.00  0.00     0.095 C 
HETATM   29  C17 UNL     1       0.527   6.972  10.045  1.00  0.00     0.048 C 
HETATM   30  C18 UNL     1       0.932   8.107   9.104  1.00  0.00     0.081 C 
HETATM   31  C19 UNL     1       2.240   7.840   8.390  1.00  0.00     0.129 C 
HETATM   32  O4  UNL     1       2.854   8.755   7.841  1.00  0.00    -0.298 OA
HETATM   33  C20 UNL     1       2.690   6.407   8.253  1.00  0.00     0.113 C 
HETATM   34  C21 UNL     1       2.569   5.602   9.551  1.00  0.00     0.160 C 
BRANCH  28  35
HETATM   35  O3  UNL     1       2.618   7.318  11.219  1.00  0.00    -0.386 OA
HETATM   36  H24 UNL     1       2.082   7.866  11.829  1.00  0.00     0.210 HD
ENDBRANCH  28  35
BRANCH  34  37
HETATM   37  O5  UNL     1       3.878   5.310  10.054  1.00  0.00    -0.392 OA
HETATM   38  H32 UNL     1       4.185   6.143  10.472  1.00  0.00     0.210 HD
ENDBRANCH  34  37
ENDBRANCH   3  28
TORSDOF 10
ENDMDL
