MODEL 1
REMARK minimizedAffinity -8.97635174
REMARK CNNscore 0.658420444
REMARK CNNaffinity 6.66243362
REMARK  5 active torsions:
REMARK  status: ('A' for Active; 'I' for Inactive)
REMARK    1  A    between atoms: C2_2  and  C4_4 
REMARK    2  A    between atoms: C10_11  and  O2_12 
REMARK    3  A    between atoms: C13_15  and  O3_16 
REMARK    4  A    between atoms: C32_38  and  O5_39 
REMARK    5  A    between atoms: C37_45  and  O7_46 
ROOT
HETATM    1  C4  UNL     1     -15.010  43.460 -22.621  1.00  0.00     0.181 C 
HETATM    2  O1  UNL     1     -14.048  44.521 -22.825  1.00  0.00    -0.370 OA
HETATM    3  C5  UNL     1     -14.510  45.434 -23.833  1.00  0.00     0.163 C 
HETATM    4  C6  UNL     1     -13.626  46.689 -23.854  1.00  0.00     0.036 C 
HETATM    5  C7  UNL     1     -12.340  46.606 -24.681  1.00  0.00     0.016 C 
HETATM    6  C8  UNL     1     -12.424  45.718 -25.970  1.00  0.00     0.006 C 
HETATM    7  C9  UNL     1     -11.694  44.401 -25.568  1.00  0.00     0.020 C 
HETATM    8  C10 UNL     1     -13.948  45.394 -26.344  1.00  0.00     0.102 C 
HETATM    9  C11 UNL     1     -14.106  44.620 -27.689  1.00  0.00     0.045 C 
HETATM   10  C12 UNL     1     -13.358  45.239 -28.900  1.00  0.00     0.045 C 
HETATM   11  C13 UNL     1     -11.903  45.482 -28.520  1.00  0.00     0.102 C 
HETATM   12  C14 UNL     1     -10.892  46.095 -29.590  1.00  0.00     0.194 C 
HETATM   13  O4  UNL     1     -10.526  45.013 -30.443  1.00  0.00    -0.367 OA
HETATM   14  C15 UNL     1      -9.938  45.269 -31.727  1.00  0.00     0.061 C 
HETATM   15  C16 UNL     1      -9.945  43.872 -32.388  1.00  0.00     0.046 C 
HETATM   16  C17 UNL     1     -10.815  46.171 -32.596  1.00  0.00     0.046 C 
HETATM   17  C18 UNL     1      -8.472  45.715 -31.582  1.00  0.00     0.060 C 
HETATM   18  C19 UNL     1      -7.609  45.872 -32.849  1.00  0.00     0.023 C 
HETATM   19  C20 UNL     1      -6.849  47.045 -32.198  1.00  0.00     0.054 C 
HETATM   20  C21 UNL     1      -5.495  46.836 -31.594  1.00  0.00    -0.077 C 
HETATM   21  C22 UNL     1      -4.604  46.008 -32.177  1.00  0.00     0.015 C 
HETATM   22  C23 UNL     1      -5.178  47.666 -30.355  1.00  0.00     0.074 C 
HETATM   23  C24 UNL     1      -6.204  47.530 -29.244  1.00  0.00    -0.022 C 
HETATM   24  C25 UNL     1      -5.895  47.743 -27.893  1.00  0.00     0.043 C 
HETATM   25 CL1  UNL     1      -4.301  48.186 -27.389  1.00  0.00    -0.084 Cl
HETATM   26  C26 UNL     1      -6.870  47.626 -26.894  1.00  0.00     0.054 C 
HETATM   27  C27 UNL     1      -8.158  47.229 -27.284  1.00  0.00     0.045 A 
HETATM   28  N1  UNL     1      -9.299  47.018 -26.515  1.00  0.00    -0.357 N 
HETATM   29  C28 UNL     1     -10.303  46.660 -27.343  1.00  0.00     0.032 A 
HETATM   30  C29 UNL     1      -9.829  46.562 -28.633  1.00  0.00     0.010 A 
HETATM   31  C30 UNL     1      -8.495  47.000 -28.631  1.00  0.00     0.011 A 
HETATM   32  C31 UNL     1      -7.534  47.238 -29.632  1.00  0.00    -0.001 C 
HETATM   33  C32 UNL     1      -8.014  47.155 -31.135  1.00  0.00     0.100 C 
HETATM   34  C33 UNL     1     -11.779  46.428 -27.228  1.00  0.00     0.043 C 
HETATM   35  C34 UNL     1     -12.409  47.834 -27.535  1.00  0.00     0.026 C 
HETATM   36  C35 UNL     1     -14.600  44.708 -25.155  1.00  0.00     0.147 A 
HETATM   37  O6  UNL     1     -15.928  44.175 -25.395  1.00  0.00    -0.360 OA
HETATM   38  C36 UNL     1     -14.904  43.218 -25.141  1.00  0.00     0.194 A 
HETATM   39  C37 UNL     1     -14.942  42.491 -23.834  1.00  0.00     0.183 C 
HETATM   40  H37 UNL     1      -9.361  47.143 -25.512  1.00  0.00     0.166 HD
ENDROOT
BRANCH   1  41
HETATM   41  C2  UNL     1     -14.747  42.765 -21.284  1.00  0.00    -0.062 C 
HETATM   42  C1  UNL     1     -13.810  41.824 -21.097  1.00  0.00     0.016 C 
HETATM   43  C3  UNL     1     -15.638  43.212 -20.151  1.00  0.00     0.045 C 
ENDBRANCH   1  41
BRANCH  39  44
HETATM   44  O7  UNL     1     -13.763  41.687 -23.792  1.00  0.00    -0.390 OA
HETATM   45  H44 UNL     1     -13.038  42.255 -23.481  1.00  0.00     0.210 HD
ENDBRANCH  39  44
BRANCH   8  46
HETATM   46  O2  UNL     1     -14.657  46.639 -26.510  1.00  0.00    -0.386 OA
HETATM   47  H15 UNL     1     -15.330  46.529 -27.211  1.00  0.00     0.210 HD
ENDBRANCH   8  46
BRANCH  11  48
HETATM   48  O3  UNL     1     -11.386  44.152 -28.228  1.00  0.00    -0.386 OA
HETATM   49  H20 UNL     1     -11.228  43.716 -29.101  1.00  0.00     0.210 HD
ENDBRANCH  11  48
BRANCH  33  50
HETATM   50  O5  UNL     1      -8.915  48.244 -31.468  1.00  0.00    -0.384 OA
HETATM   51  H38 UNL     1      -9.379  48.445 -30.642  1.00  0.00     0.211 HD
ENDBRANCH  33  50
TORSDOF 5
ENDMDL
