MODEL 1
REMARK minimizedAffinity -9.73018646
REMARK CNNscore 0.820947587
REMARK CNNaffinity 7.76157713
REMARK  7 active torsions:
REMARK  status: ('A' for Active; 'I' for Inactive)
REMARK    1  A    between atoms: C2_2  and  C3_3 
REMARK    2  A    between atoms: C4_4  and  C5_5 
REMARK    3  A    between atoms: C5_5  and  O2_7 
REMARK    4  A    between atoms: O2_7  and  C6_8 
REMARK    5  A    between atoms: C6_8  and  C8_10 
REMARK    6  A    between atoms: C18_22  and  O4_23 
REMARK    7  A    between atoms: C20_26  and  O6_27 
ROOT
HETATM    1  C8  UNL     1      -1.646   6.725  12.598  1.00  0.00     0.028 C 
HETATM    2  C9  UNL     1      -2.396   8.042  12.459  1.00  0.00     0.011 C 
HETATM    3  C10 UNL     1      -1.392   8.908  11.702  1.00  0.00     0.044 C 
HETATM    4  C11 UNL     1       0.049   8.425  12.117  1.00  0.00     0.097 C 
HETATM    5  O3  UNL     1       0.760   9.537  12.670  1.00  0.00    -0.373 OA
HETATM    6  C12 UNL     1       0.271  10.163  13.841  1.00  0.00     0.199 C 
HETATM    7  C13 UNL     1       0.942   9.581  15.085  1.00  0.00     0.298 C 
HETATM    8  N1  UNL     1       0.998   8.109  15.111  1.00  0.00     0.087 N 
HETATM    9  C14 UNL     1       1.343   7.641  16.455  1.00  0.00     0.310 C 
HETATM   10  C15 UNL     1      -0.228   7.489  14.606  1.00  0.00     0.285 C 
HETATM   11  C16 UNL     1      -0.216   7.177  13.073  1.00  0.00     0.030 C 
HETATM   12  C17 UNL     1       0.752   5.984  12.808  1.00  0.00     0.050 C 
HETATM   13  C18 UNL     1       2.194   6.365  12.485  1.00  0.00     0.159 C 
HETATM   14  C19 UNL     1       2.305   7.341  11.265  1.00  0.00     0.124 C 
HETATM   15  O5  UNL     1       3.191   8.431  11.648  1.00  0.00    -0.336 OA
HETATM   16  C20 UNL     1       4.329   8.568  10.813  1.00  0.00     0.163 C 
HETATM   17  C21 UNL     1       5.173   7.303  10.901  1.00  0.00     0.069 C 
HETATM   18  C22 UNL     1       4.384   6.140  10.314  1.00  0.00     0.018 C 
HETATM   19  C23 UNL     1       2.925   6.583  10.008  1.00  0.00    -0.002 C 
HETATM   20  C24 UNL     1       2.123   5.347   9.555  1.00  0.00     0.019 C 
HETATM   21  C25 UNL     1       3.012   7.650   8.877  1.00  0.00     0.005 C 
HETATM   22  C26 UNL     1       1.614   8.120   8.464  1.00  0.00     0.033 C 
HETATM   23  C27 UNL     1       0.704   8.376   9.632  1.00  0.00    -0.017 C 
HETATM   24  C28 UNL     1       0.962   8.041  10.918  1.00  0.00    -0.011 C 
HETATM   25  C29 UNL     1       3.881   8.827   9.375  1.00  0.00     0.074 C 
ENDROOT
BRANCH   1  26
HETATM   26  C6  UNL     1      -2.396   5.603  13.357  1.00  0.00     0.133 C 
HETATM   27  C7  UNL     1      -2.594   5.812  14.855  1.00  0.00     0.040 C 
BRANCH  26  28
HETATM   28  O2  UNL     1      -3.754   5.523  12.845  1.00  0.00    -0.312 OA
BRANCH  28  29
HETATM   29  C5  UNL     1      -4.120   4.380  12.196  1.00  0.00     0.296 C 
HETATM   30  O1  UNL     1      -3.422   3.811  11.366  1.00  0.00    -0.259 OA
BRANCH  29  31
HETATM   31  C4  UNL     1      -5.481   3.963  12.546  1.00  0.00     0.069 A 
HETATM   32  C3  UNL     1      -6.361   4.688  13.346  1.00  0.00     0.025 A 
HETATM   33  N2  UNL     1      -7.519   3.963  13.467  1.00  0.00    -0.368 N 
HETATM   34  C32 UNL     1      -7.410   2.791  12.772  1.00  0.00     0.096 A 
HETATM   35  H46 UNL     1      -8.331   4.248  14.003  1.00  0.00     0.165 HD
HETATM   36  C30 UNL     1      -6.164   2.750  12.177  1.00  0.00    -0.028 A 
HETATM   37  C31 UNL     1      -5.651   1.651  11.313  1.00  0.00     0.050 C 
BRANCH  32  38
HETATM   38  C2  UNL     1      -6.206   6.008  14.036  1.00  0.00     0.054 C 
HETATM   39  C1  UNL     1      -7.541   6.716  14.225  1.00  0.00     0.011 C 
ENDBRANCH  32  38
ENDBRANCH  29  31
ENDBRANCH  28  29
ENDBRANCH  26  28
ENDBRANCH   1  26
BRANCH  13  40
HETATM   40  O4  UNL     1       2.864   6.830  13.654  1.00  0.00    -0.392 OA
HETATM   41  H27 UNL     1       2.399   7.653  13.927  1.00  0.00     0.210 HD
ENDBRANCH  13  40
BRANCH  16  42
HETATM   42  O6  UNL     1       5.072   9.668  11.292  1.00  0.00    -0.365 OA
HETATM   43  H28 UNL     1       4.719   9.760  12.198  1.00  0.00     0.213 HD
ENDBRANCH  16  42
TORSDOF 7
ENDMDL
