MODEL 1
REMARK minimizedAffinity -7.75354624
REMARK CNNscore 0.784020543
REMARK CNNaffinity 7.09478235
REMARK  5 active torsions:
REMARK  status: ('A' for Active; 'I' for Inactive)
REMARK    1  A    between atoms: C2_2  and  C4_4 
REMARK    2  A    between atoms: C4_4  and  C6_6 
REMARK    3  A    between atoms: C7_7  and  C8_8 
REMARK    4  A    between atoms: C8_8  and  C10_10 
REMARK    5  A    between atoms: C19_20  and  O2_21 
ROOT
HETATM    1  C10 UNL     1       0.195  53.339  -9.998  1.00  0.00     0.001 C 
HETATM    2  C11 UNL     1      -0.927  53.900  -9.070  1.00  0.00     0.006 C 
HETATM    3  C12 UNL     1      -0.227  54.628  -7.928  1.00  0.00     0.006 C 
HETATM    4  C13 UNL     1       0.953  55.238  -8.665  1.00  0.00     0.001 C 
HETATM    5  C14 UNL     1       1.966  56.074  -7.883  1.00  0.00     0.033 C 
HETATM    6  C15 UNL     1       2.194  55.749  -6.403  1.00  0.00     0.089 C 
HETATM    7  C16 UNL     1       3.341  56.641  -5.926  1.00  0.00     0.162 C 
HETATM    8  O1  UNL     1       3.347  57.097  -4.779  1.00  0.00    -0.295 OA
HETATM    9  C17 UNL     1       4.457  56.833  -7.074  1.00  0.00     0.131 C 
HETATM   10  C18 UNL     1       5.746  57.516  -6.636  1.00  0.00     0.078 C 
HETATM   11  C19 UNL     1       6.780  56.440  -6.324  1.00  0.00     0.121 C 
HETATM   12  C20 UNL     1       7.120  55.574  -7.550  1.00  0.00     0.036 C 
HETATM   13  C21 UNL     1       6.013  55.528  -8.631  1.00  0.00    -0.006 C 
HETATM   14  C22 UNL     1       6.183  54.284  -9.497  1.00  0.00     0.010 C 
HETATM   15  C23 UNL     1       4.640  55.548  -7.953  1.00  0.00     0.067 C 
HETATM   16  C24 UNL     1       3.331  56.153  -8.643  1.00  0.00     0.074 C 
HETATM   17  C25 UNL     1       3.149  56.030 -10.152  1.00  0.00     0.040 C 
HETATM   18  C26 UNL     1       2.466  54.707 -10.579  1.00  0.00     0.013 C 
HETATM   19  C27 UNL     1       1.516  54.083  -9.522  1.00  0.00    -0.036 C 
HETATM   20  C28 UNL     1       2.316  53.030  -8.709  1.00  0.00     0.016 C 
HETATM   21  O3  UNL     1       3.895  57.489  -8.292  1.00  0.00    -0.360 OA
ENDROOT
BRANCH   1  22
HETATM   22  C8  UNL     1      -0.209  53.411 -11.499  1.00  0.00     0.008 C 
HETATM   23  C9  UNL     1      -1.619  52.844 -11.742  1.00  0.00     0.014 C 
BRANCH  22  24
HETATM   24  C7  UNL     1       0.717  52.716 -12.479  1.00  0.00    -0.026 C 
HETATM   25  C6  UNL     1       0.415  52.252 -13.705  1.00  0.00    -0.026 C 
BRANCH  25  26
HETATM   26  C4  UNL     1       1.359  51.542 -14.661  1.00  0.00     0.007 C 
HETATM   27  C5  UNL     1       2.655  51.088 -13.966  1.00  0.00     0.014 C 
BRANCH  26  28
HETATM   28  C2  UNL     1       1.639  52.408 -15.925  1.00  0.00    -0.015 C 
HETATM   29  C1  UNL     1       0.903  51.883 -17.166  1.00  0.00     0.010 C 
HETATM   30  C3  UNL     1       3.137  52.500 -16.250  1.00  0.00     0.010 C 
ENDBRANCH  26  28
ENDBRANCH  25  26
ENDBRANCH  22  24
ENDBRANCH   1  22
BRANCH  11  31
HETATM   31  O2  UNL     1       6.252  55.581  -5.316  1.00  0.00    -0.395 OA
HETATM   32  H30 UNL     1       6.661  55.825  -4.460  1.00  0.00     0.210 HD
ENDBRANCH  11  31
TORSDOF 5
ENDMDL
