MODEL 1
REMARK minimizedAffinity -9.5824604
REMARK  4 active torsions:
REMARK  status: ('A' for Active; 'I' for Inactive)
REMARK    1  A    between atoms: C2_2  and  C3_3 
REMARK    2  A    between atoms: C2_2  and  C9_9 
REMARK    3  A    between atoms: C3_3  and  C4_4 
REMARK    4  A    between atoms: C4_4  and  C5_5 
ROOT
HETATM    1  C9  UNL     1      -1.412  50.287 -17.714  1.00  0.00     0.018 C 
HETATM    2  C10 UNL     1      -2.333  49.039 -17.787  1.00  0.00     0.010 C 
HETATM    3  C11 UNL     1      -3.033  49.122 -19.155  1.00  0.00     0.011 C 
HETATM    4  C12 UNL     1      -1.959  49.724 -20.090  1.00  0.00    -0.032 C 
HETATM    5  C13 UNL     1      -0.905  48.600 -20.342  1.00  0.00     0.016 C 
HETATM    6  C14 UNL     1      -1.411  50.848 -19.166  1.00  0.00     0.002 C 
HETATM    7  C15 UNL     1      -0.186  51.519 -19.769  1.00  0.00     0.006 C 
HETATM    8  C16 UNL     1      -0.533  52.124 -21.144  1.00  0.00     0.006 C 
HETATM    9  C17 UNL     1      -1.209  51.124 -22.125  1.00  0.00     0.003 C 
HETATM   10  C18 UNL     1      -1.428  51.664 -23.608  1.00  0.00    -0.035 C 
HETATM   11  C19 UNL     1      -2.374  52.887 -23.641  1.00  0.00     0.016 C 
HETATM   12  C20 UNL     1      -0.051  52.109 -24.190  1.00  0.00     0.017 C 
HETATM   13  C21 UNL     1      -0.060  52.406 -25.684  1.00  0.00     0.080 C 
HETATM   14  C22 UNL     1      -0.634  51.260 -26.482  1.00  0.00     0.135 C 
HETATM   15  O1  UNL     1      -0.064  50.887 -27.510  1.00  0.00    -0.297 OA
HETATM   16  C23 UNL     1      -1.982  50.677 -26.028  1.00  0.00     0.017 C 
HETATM   17  C24 UNL     1      -2.177  49.321 -26.756  1.00  0.00     0.023 C 
HETATM   18  C25 UNL     1      -3.104  51.609 -26.508  1.00  0.00     0.023 C 
HETATM   19  C26 UNL     1      -1.924  50.445 -24.478  1.00  0.00     0.009 C 
HETATM   20  C27 UNL     1      -3.196  49.801 -23.885  1.00  0.00     0.007 C 
HETATM   21  C28 UNL     1      -2.963  49.297 -22.454  1.00  0.00     0.011 C 
HETATM   22  C29 UNL     1      -2.452  50.379 -21.469  1.00  0.00    -0.032 C 
HETATM   23  C30 UNL     1      -3.640  51.351 -21.214  1.00  0.00     0.016 C 
ENDROOT
BRANCH   1  24
HETATM   24  C2  UNL     1      -0.077  50.174 -16.983  1.00  0.00    -0.084 C 
HETATM   25  C1  UNL     1       0.338  49.063 -16.350  1.00  0.00     0.014 C 
BRANCH  24  26
HETATM   26  C3  UNL     1       0.729  51.474 -16.973  1.00  0.00     0.037 C 
BRANCH  26  27
HETATM   27  C4  UNL     1       1.031  52.118 -15.612  1.00  0.00     0.031 C 
BRANCH  27  28
HETATM   28  C5  UNL     1       2.069  51.335 -14.852  1.00  0.00    -0.024 C 
HETATM   29  C6  UNL     1       3.409  51.423 -14.960  1.00  0.00    -0.091 C 
HETATM   30  C7  UNL     1       4.140  52.316 -15.926  1.00  0.00     0.042 C 
HETATM   31  C8  UNL     1       4.307  50.585 -14.089  1.00  0.00     0.042 C 
ENDBRANCH  27  28
ENDBRANCH  26  27
ENDBRANCH  24  26
ENDBRANCH   1  24
TORSDOF 4
ENDMDL
