MODEL 1
REMARK minimizedAffinity -7.84702826
REMARK CNNscore 0.762494087
REMARK CNNaffinity 7.04432535
REMARK  6 active torsions:
REMARK  status: ('A' for Active; 'I' for Inactive)
REMARK    1  A    between atoms: C12_13  and  C13_14 
REMARK    2  A    between atoms: C13_14  and  C15_16 
REMARK    3  A    between atoms: C15_16  and  C16_17 
REMARK    4  A    between atoms: C16_17  and  C17_18 
REMARK    5  A    between atoms: C18_19  and  C20_21 
REMARK    6  A    between atoms: C20_21  and  O3_23 
ROOT
HETATM    1  C1  UNL     1       7.035  55.017  -9.083  1.00  0.00     0.052 C 
HETATM    2  C2  UNL     1       5.830  55.695  -8.494  1.00  0.00    -0.013 C 
HETATM    3  C3  UNL     1       4.670  55.957  -9.137  1.00  0.00    -0.066 C 
HETATM    4  C4  UNL     1       4.371  55.547 -10.558  1.00  0.00     0.036 C 
HETATM    5  C5  UNL     1       3.213  54.541 -10.566  1.00  0.00     0.010 C 
HETATM    6  C6  UNL     1       1.963  55.093  -9.835  1.00  0.00     0.007 C 
HETATM    7  C7  UNL     1       2.356  55.556  -8.394  1.00  0.00     0.068 C 
HETATM    8  C8  UNL     1       1.123  56.016  -7.641  1.00  0.00     0.133 C 
HETATM    9  O1  UNL     1       1.154  56.258  -6.434  1.00  0.00    -0.298 OA
HETATM   10  C9  UNL     1      -0.151  56.168  -8.424  1.00  0.00     0.089 C 
HETATM   11  C10 UNL     1      -0.563  54.895  -9.232  1.00  0.00    -0.026 C 
HETATM   12  C11 UNL     1      -1.517  55.452 -10.315  1.00  0.00     0.016 C 
HETATM   13  C12 UNL     1      -1.214  53.829  -8.250  1.00  0.00    -0.002 C 
HETATM   14  C21 UNL     1       0.017  53.068  -7.738  1.00  0.00     0.006 C 
HETATM   15  C22 UNL     1       0.900  52.884  -8.958  1.00  0.00     0.011 C 
HETATM   16  C23 UNL     1       0.708  54.143  -9.849  1.00  0.00    -0.032 C 
HETATM   17  C24 UNL     1       0.465  53.637 -11.293  1.00  0.00     0.016 C 
HETATM   18  C25 UNL     1       3.465  56.634  -8.485  1.00  0.00     0.027 C 
HETATM   19  C26 UNL     1       3.871  57.344  -7.189  1.00  0.00     0.018 C 
HETATM   20  C27 UNL     1       4.707  56.458  -6.291  1.00  0.00     0.084 C 
HETATM   21  C28 UNL     1       5.950  56.024  -7.030  1.00  0.00     0.155 C 
HETATM   22  O4  UNL     1       7.023  55.886  -6.442  1.00  0.00    -0.293 OA
ENDROOT
BRANCH  13  23
HETATM   23  C13 UNL     1      -2.346  52.925  -8.864  1.00  0.00    -0.014 C 
HETATM   24  C14 UNL     1      -2.064  51.453  -8.514  1.00  0.00     0.010 C 
BRANCH  23  25
HETATM   25  C15 UNL     1      -2.531  53.082 -10.398  1.00  0.00     0.008 C 
BRANCH  25  26
HETATM   26  C16 UNL     1      -3.885  52.612 -10.965  1.00  0.00     0.028 C 
BRANCH  26  27
HETATM   27  C17 UNL     1      -3.840  51.245 -11.595  1.00  0.00    -0.013 C 
HETATM   28  C18 UNL     1      -4.543  50.151 -11.236  1.00  0.00     0.008 C 
HETATM   29  C19 UNL     1      -5.560  50.083 -10.137  1.00  0.00     0.055 C 
BRANCH  28  30
HETATM   30  C20 UNL     1      -4.289  48.913 -12.019  1.00  0.00     0.171 C 
HETATM   31  O2  UNL     1      -3.238  48.579 -12.538  1.00  0.00    -0.646 OA
BRANCH  30  32
HETATM   32  O3  UNL     1      -5.380  48.134 -12.110  1.00  0.00    -0.773 OA
HETATM   33  H28 UNL     1      -5.068  47.374 -12.646  1.00  0.00     0.167 HD
ENDBRANCH  30  32
ENDBRANCH  28  30
ENDBRANCH  26  27
ENDBRANCH  25  26
ENDBRANCH  23  25
ENDBRANCH  13  23
TORSDOF 6
ENDMDL
