MODEL 1
REMARK minimizedAffinity -7.98966694
REMARK CNNscore 0.707517028
REMARK CNNaffinity 7.60449171
REMARK  12 active torsions:
REMARK  status: ('A' for Active; 'I' for Inactive)
REMARK    1  A    between atoms: O1_2  and  C2_3 
REMARK    2  A    between atoms: C2_3  and  C3_4 
REMARK    3  A    between atoms: C3_4  and  C4_5 
REMARK    4  A    between atoms: C4_5  and  N1_6 
REMARK    5  A    between atoms: N1_6  and  C5_7 
REMARK    6  A    between atoms: C5_7  and  C6_8 
REMARK    7  A    between atoms: C10_12  and  O2_13 
REMARK    8  A    between atoms: C24_29  and  O5_30 
REMARK    9  A    between atoms: C28_34  and  C29_35 
REMARK   10  A    between atoms: C35_41  and  O6_42 
REMARK   11  A    between atoms: C38_45  and  C39_46 
REMARK   12  A    between atoms: C40_48  and  O8_49 
ROOT
HETATM    1  C6  UNL     1       1.408  47.506 -13.208  1.00  0.00    -0.016 C 
HETATM    2  C7  UNL     1       0.828  47.390 -14.423  1.00  0.00    -0.013 C 
HETATM    3  C8  UNL     1       0.701  48.540 -15.391  1.00  0.00     0.021 C 
HETATM    4  C9  UNL     1      -0.685  49.173 -15.389  1.00  0.00     0.051 C 
HETATM    5  C10 UNL     1      -0.509  50.552 -16.055  1.00  0.00     0.098 C 
HETATM    6  C11 UNL     1       0.896  51.049 -15.499  1.00  0.00     0.002 C 
HETATM    7  C12 UNL     1       0.784  52.038 -14.270  1.00  0.00     0.013 C 
HETATM    8  C13 UNL     1      -0.001  51.708 -12.996  1.00  0.00     0.001 C 
HETATM    9  C14 UNL     1       0.783  51.056 -11.858  1.00  0.00     0.004 C 
HETATM   10  C15 UNL     1       0.773  49.529 -11.906  1.00  0.00     0.048 C 
HETATM   11  C16 UNL     1       1.892  48.867 -12.735  1.00  0.00     0.120 A 
HETATM   12  O3  UNL     1       3.042  48.743 -11.885  1.00  0.00    -0.297 OA
HETATM   13  C17 UNL     1       4.074  49.462 -12.393  1.00  0.00     0.284 A 
HETATM   14  O4  UNL     1       5.165  49.593 -11.871  1.00  0.00    -0.260 OA
HETATM   15  C18 UNL     1       3.696  50.004 -13.692  1.00  0.00     0.089 A 
HETATM   16  C19 UNL     1       2.429  49.642 -13.891  1.00  0.00    -0.029 A 
HETATM   17  C20 UNL     1       1.676  49.725 -15.180  1.00  0.00     0.037 C 
HETATM   18  C21 UNL     1       1.732  51.868 -16.542  1.00  0.00     0.014 C 
HETATM   19  C22 UNL     1       0.905  52.460 -17.673  1.00  0.00     0.010 C 
HETATM   20  C23 UNL     1       0.311  51.304 -18.481  1.00  0.00     0.041 C 
HETATM   21  C24 UNL     1      -0.776  50.581 -17.648  1.00  0.00     0.095 C 
HETATM   22  C25 UNL     1      -1.081  49.223 -18.323  1.00  0.00     0.049 C 
HETATM   23  C26 UNL     1      -0.814  49.201 -19.852  1.00  0.00     0.025 C 
HETATM   24  C27 UNL     1      -1.439  47.932 -20.485  1.00  0.00     0.012 C 
HETATM   25  C28 UNL     1      -2.934  48.024 -20.838  1.00  0.00    -0.011 C 
HETATM   26  C32 UNL     1      -3.212  48.926 -22.070  1.00  0.00     0.005 C 
HETATM   27  C33 UNL     1      -2.050  49.577 -22.827  1.00  0.00     0.010 C 
HETATM   28  C34 UNL     1      -0.925  50.343 -22.086  1.00  0.00     0.050 C 
HETATM   29  C35 UNL     1      -0.643  51.681 -22.783  1.00  0.00     0.125 C 
HETATM   30  C36 UNL     1       0.690  52.270 -22.304  1.00  0.00     0.033 C 
HETATM   31  C37 UNL     1       1.063  51.867 -20.865  1.00  0.00     0.023 C 
HETATM   32  C38 UNL     1      -0.168  51.696 -19.937  1.00  0.00     0.051 C 
HETATM   33  C40 UNL     1      -1.109  50.559 -20.553  1.00  0.00     0.082 C 
ENDROOT
BRANCH   1  34
HETATM   34  C5  UNL     1       1.489  46.344 -12.249  1.00  0.00     0.306 C 
BRANCH  34  35
HETATM   35  N1  UNL     1       2.304  45.237 -12.741  1.00  0.00     0.087 N 
HETATM   36  H10 UNL     1       1.696  44.464 -13.007  1.00  0.00     0.316 HD
BRANCH  35  37
HETATM   37  C4  UNL     1       3.301  44.745 -11.780  1.00  0.00     0.272 C 
BRANCH  37  38
HETATM   38  C3  UNL     1       4.329  43.782 -12.389  1.00  0.00     0.056 C 
BRANCH  38  39
HETATM   39  C2  UNL     1       5.534  43.594 -11.470  1.00  0.00     0.168 C 
BRANCH  39  40
HETATM   40  O1  UNL     1       6.127  42.302 -11.613  1.00  0.00    -0.396 OA
HETATM   41  C1  UNL     1       6.691  42.091 -12.903  1.00  0.00     0.201 C 
ENDBRANCH  39  40
ENDBRANCH  38  39
ENDBRANCH  37  38
ENDBRANCH  35  37
ENDBRANCH  34  35
ENDBRANCH   1  34
BRANCH   5  42
HETATM   42  O2  UNL     1      -1.538  51.385 -15.466  1.00  0.00    -0.386 OA
HETATM   43  H17 UNL     1      -2.089  51.699 -16.216  1.00  0.00     0.210 HD
ENDBRANCH   5  42
BRANCH  21  44
HETATM   44  O5  UNL     1      -2.005  51.361 -17.775  1.00  0.00    -0.386 OA
HETATM   45  H33 UNL     1      -2.468  51.087 -18.598  1.00  0.00     0.210 HD
ENDBRANCH  21  44
BRANCH  32  46
HETATM   46  C39 UNL     1      -0.867  53.074 -19.840  1.00  0.00     0.244 C 
HETATM   47  O7  UNL     1      -0.273  54.151 -19.897  1.00  0.00    -0.306 OA
ENDBRANCH  32  46
BRANCH  33  48
HETATM   48  O8  UNL     1      -2.464  50.926 -20.270  1.00  0.00    -0.388 OA
HETATM   49  H59 UNL     1      -2.742  51.526 -21.003  1.00  0.00     0.210 HD
ENDBRANCH  33  48
BRANCH  25  50
HETATM   50  C29 UNL     1      -3.611  46.620 -21.034  1.00  0.00    -0.019 C 
HETATM   51  C30 UNL     1      -3.804  45.844 -19.722  1.00  0.00     0.010 C 
HETATM   52  C31 UNL     1      -4.994  46.763 -21.696  1.00  0.00     0.010 C 
ENDBRANCH  25  50
BRANCH  29  53
HETATM   53  O6  UNL     1      -1.731  52.563 -22.488  1.00  0.00    -0.395 OA
HETATM   54  H53 UNL     1      -1.524  53.428 -22.895  1.00  0.00     0.210 HD
ENDBRANCH  29  53
TORSDOF 12
ENDMDL
