MODEL 1
REMARK minimizedAffinity -11.6178999
REMARK CNNscore 0.469566584
REMARK CNNaffinity 8.19770145
REMARK  13 active torsions:
REMARK  status: ('A' for Active; 'I' for Inactive)
REMARK    1  A    between atoms: C5_6  and  C6_7 
REMARK    2  A    between atoms: C5_6  and  C27_31 
REMARK    3  A    between atoms: C18_19  and  O2_20 
REMARK    4  A    between atoms: C23_25  and  O3_26 
REMARK    5  A    between atoms: C28_33  and  C29_34 
REMARK    6  A    between atoms: C29_34  and  O6_36 
REMARK    7  A    between atoms: C29_34  and  C31_37 
REMARK    8  A    between atoms: C31_37  and  C33_39 
REMARK    9  A    between atoms: C31_37  and  C34_41 
REMARK   10  A    between atoms: C33_39  and  O7_40 
REMARK   11  A    between atoms: C34_41  and  C35_42 
REMARK   12  A    between atoms: C35_42  and  C36_43 
REMARK   13  A    between atoms: C39_47  and  N2_48 
ROOT
HETATM    1  C1  UNL     1       0.209   8.384   8.549  1.00  0.00     0.010 C 
HETATM    2  C2  UNL     1       0.838   7.824   9.828  1.00  0.00    -0.014 C 
HETATM    3  C3  UNL     1       2.332   7.533   9.629  1.00  0.00     0.030 C 
HETATM    4  C4  UNL     1       2.681   6.083   9.942  1.00  0.00     0.169 C 
HETATM    5  O1  UNL     1       2.215   5.718  11.237  1.00  0.00    -0.377 OA
HETATM    6  C5  UNL     1       0.774   5.787  11.434  1.00  0.00     0.094 C 
HETATM    7  C41 UNL     1       0.095   6.567  10.279  1.00  0.00     0.045 C 
ENDROOT
BRANCH   6   8
HETATM    8  C6  UNL     1       0.628   6.326  12.902  1.00  0.00     0.035 C 
HETATM    9  C7  UNL     1       1.975   6.471  13.720  1.00  0.00     0.016 C 
HETATM   10  C8  UNL     1       1.767   7.687  14.636  1.00  0.00     0.026 C 
HETATM   11  C9  UNL     1       2.428   7.754  15.999  1.00  0.00     0.013 C 
HETATM   12  C18 UNL     1       0.251   7.720  14.779  1.00  0.00     0.094 C 
HETATM   13  C10 UNL     1       1.964   9.049  16.713  1.00  0.00     0.043 C 
HETATM   14  C11 UNL     1       0.513   9.454  16.470  1.00  0.00    -0.006 C 
HETATM   15  C12 UNL     1      -0.289   8.860  15.564  1.00  0.00    -0.030 C 
HETATM   16  C26 UNL     1      -0.054  10.491  17.378  1.00  0.00     0.161 C 
HETATM   17  C13 UNL     1      -1.772   9.124  15.403  1.00  0.00     0.027 C 
HETATM   18  C14 UNL     1      -2.370   8.711  14.015  1.00  0.00     0.011 C 
HETATM   19  C19 UNL     1      -2.158  10.582  15.839  1.00  0.00    -0.026 C 
HETATM   20  C15 UNL     1      -1.735   7.473  13.339  1.00  0.00     0.014 C 
HETATM   21  C16 UNL     1      -0.203   7.603  13.303  1.00  0.00    -0.002 C 
HETATM   22  C17 UNL     1       0.177   8.850  12.466  1.00  0.00     0.019 C 
HETATM   23  C20 UNL     1      -1.668  11.636  14.810  1.00  0.00     0.016 C 
HETATM   24  C21 UNL     1      -3.712  10.675  15.939  1.00  0.00     0.013 C 
HETATM   25  C25 UNL     1      -1.499  10.951  17.207  1.00  0.00     0.071 C 
HETATM   26  C22 UNL     1      -4.174  11.653  17.013  1.00  0.00     0.032 C 
HETATM   27  C23 UNL     1      -3.697  11.228  18.406  1.00  0.00     0.119 C 
HETATM   28  C24 UNL     1      -2.360  10.481  18.385  1.00  0.00     0.045 C 
HETATM   29  O4  UNL     1       0.652  10.944  18.278  1.00  0.00    -0.292 OA
BRANCH  27  30
HETATM   30  O3  UNL     1      -3.545  12.402  19.199  1.00  0.00    -0.396 OA
HETATM   31  H34 UNL     1      -4.422  12.813  19.300  1.00  0.00     0.210 HD
ENDBRANCH  27  30
BRANCH  12  32
HETATM   32  O2  UNL     1      -0.188   6.552  15.506  1.00  0.00    -0.384 OA
HETATM   33  H25 UNL     1       0.060   6.670  16.438  1.00  0.00     0.211 HD
ENDBRANCH  12  32
ENDBRANCH   6   8
BRANCH   6  34
HETATM   34  C27 UNL     1       0.203   4.365  11.393  1.00  0.00     0.189 A 
HETATM   35  O5  UNL     1      -0.412   3.914  12.612  1.00  0.00    -0.369 OA
HETATM   36  C28 UNL     1      -1.287   4.091  11.488  1.00  0.00     0.189 A 
BRANCH  36  37
HETATM   37  C29 UNL     1      -1.986   2.828  11.005  1.00  0.00     0.092 C 
HETATM   38  C30 UNL     1      -1.182   1.562  11.348  1.00  0.00     0.049 C 
BRANCH  37  39
HETATM   39  O6  UNL     1      -1.941   2.895   9.571  1.00  0.00    -0.387 OA
HETATM   40  H43 UNL     1      -2.809   3.224   9.255  1.00  0.00     0.210 HD
ENDBRANCH  37  39
BRANCH  37  41
HETATM   41  C31 UNL     1      -3.512   2.745  11.507  1.00  0.00     0.011 C 
HETATM   42  C32 UNL     1      -3.945   1.277  11.736  1.00  0.00     0.020 C 
BRANCH  41  43
HETATM   43  C33 UNL     1      -4.453   3.341  10.422  1.00  0.00     0.176 C 
BRANCH  43  44
HETATM   44  O7  UNL     1      -5.507   2.423  10.125  1.00  0.00    -0.400 OA
HETATM   45  H49 UNL     1      -6.232   2.947   9.732  1.00  0.00     0.209 HD
ENDBRANCH  43  44
ENDBRANCH  41  43
BRANCH  41  46
HETATM   46  C34 UNL     1      -3.680   3.542  12.848  1.00  0.00     0.019 C 
BRANCH  46  47
HETATM   47  C35 UNL     1      -4.167   4.995  12.732  1.00  0.00     0.039 C 
BRANCH  47  48
HETATM   48  C36 UNL     1      -5.571   5.120  13.287  1.00  0.00    -0.054 A 
HETATM   49  C37 UNL     1      -5.877   6.104  14.231  1.00  0.00     0.024 A 
HETATM   50  C38 UNL     1      -7.156   6.162  14.763  1.00  0.00     0.090 A 
HETATM   51  N1  UNL     1      -8.076   5.277  14.363  1.00  0.00    -0.357 N 
HETATM   52  C39 UNL     1      -7.833   4.317  13.469  1.00  0.00     0.077 A 
HETATM   53  H56 UNL     1      -9.016   5.294  14.748  1.00  0.00     0.166 HD
HETATM   54  C40 UNL     1      -6.569   4.214  12.908  1.00  0.00     0.049 A 
BRANCH  52  55
HETATM   55  N2  UNL     1      -8.879   3.458  13.163  1.00  0.00    -0.289 NA
HETATM   56  H57 UNL     1      -9.059   3.458  12.155  1.00  0.00     0.125 HD
HETATM   57  H58 UNL     1      -8.626   2.491  13.377  1.00  0.00     0.125 HD
ENDBRANCH  52  55
ENDBRANCH  47  48
ENDBRANCH  46  47
ENDBRANCH  41  46
ENDBRANCH  37  41
ENDBRANCH  36  37
ENDBRANCH   6  34
TORSDOF 13
ENDMDL
