MODEL 1
REMARK minimizedAffinity -9.7958107
REMARK  8 active torsions:
REMARK  status: ('A' for Active; 'I' for Inactive)
REMARK    1  A    between atoms: C2_2  and  C3_3 
REMARK    2  A    between atoms: C2_2  and  C9_12 
REMARK    3  A    between atoms: C3_3  and  C4_4 
REMARK    4  A    between atoms: C4_4  and  O1_5 
REMARK    5  A    between atoms: C4_4  and  C5_6 
REMARK    6  A    between atoms: C5_6  and  O2_7 
REMARK    7  A    between atoms: C5_6  and  C6_8 
REMARK    8  A    between atoms: C6_8  and  O3_11 
ROOT
HETATM    1  C9  UNL     1      -6.430  48.923 -22.024  1.00  0.00     0.097 A 
HETATM    2  C10 UNL     1      -6.015  49.636 -20.772  1.00  0.00     0.042 A 
HETATM    3  C11 UNL     1      -4.474  49.734 -20.800  1.00  0.00     0.016 A 
HETATM    4  C12 UNL     1      -3.953  49.174 -22.169  1.00  0.00    -0.002 A 
HETATM    5  C13 UNL     1      -3.003  47.998 -21.839  1.00  0.00     0.019 C 
HETATM    6  C14 UNL     1      -5.206  48.624 -22.853  1.00  0.00     0.101 A 
HETATM    7  C15 UNL     1      -5.162  48.283 -24.308  1.00  0.00     0.042 C 
HETATM    8  C16 UNL     1      -4.440  49.334 -25.149  1.00  0.00     0.009 C 
HETATM    9  C17 UNL     1      -3.063  49.709 -24.552  1.00  0.00     0.003 C 
HETATM   10  C18 UNL     1      -2.089  50.479 -25.566  1.00  0.00    -0.035 C 
HETATM   11  C19 UNL     1      -1.644  49.398 -26.599  1.00  0.00     0.016 C 
HETATM   12  C20 UNL     1      -2.816  51.600 -26.348  1.00  0.00     0.017 C 
HETATM   13  C21 UNL     1      -1.925  52.429 -27.255  1.00  0.00     0.080 C 
HETATM   14  C22 UNL     1      -0.762  53.002 -26.489  1.00  0.00     0.135 C 
HETATM   15  O4  UNL     1      -0.497  54.201 -26.574  1.00  0.00    -0.297 OA
HETATM   16  C23 UNL     1       0.112  52.024 -25.699  1.00  0.00     0.017 C 
HETATM   17  C24 UNL     1       1.089  52.841 -24.813  1.00  0.00     0.023 C 
HETATM   18  C25 UNL     1       1.006  51.258 -26.701  1.00  0.00     0.023 C 
HETATM   19  C26 UNL     1      -0.805  51.057 -24.838  1.00  0.00     0.009 C 
HETATM   20  C27 UNL     1      -1.173  51.700 -23.478  1.00  0.00     0.007 C 
HETATM   21  C28 UNL     1      -1.913  50.733 -22.557  1.00  0.00     0.011 C 
HETATM   22  C29 UNL     1      -3.287  50.304 -23.108  1.00  0.00    -0.029 C 
HETATM   23  C30 UNL     1      -4.215  51.557 -23.120  1.00  0.00     0.016 C 
HETATM   24  O5  UNL     1      -5.897  47.599 -22.101  1.00  0.00    -0.362 OA
ENDROOT
BRANCH   1  25
HETATM   25  C2  UNL     1      -7.842  49.047 -22.567  1.00  0.00     0.022 C 
HETATM   26  C1  UNL     1      -8.781  48.085 -21.831  1.00  0.00     0.013 C 
BRANCH  25  27
HETATM   27  C3  UNL     1      -7.861  48.841 -24.101  1.00  0.00     0.041 C 
BRANCH  27  28
HETATM   28  C4  UNL     1      -9.059  48.049 -24.664  1.00  0.00     0.150 C 
BRANCH  28  29
HETATM   29  O1  UNL     1      -8.580  46.719 -24.962  1.00  0.00    -0.393 OA
HETATM   30  H8  UNL     1      -8.337  46.310 -24.110  1.00  0.00     0.210 HD
ENDBRANCH  28  29
BRANCH  28  31
HETATM   31  C5  UNL     1      -9.623  48.636 -25.984  1.00  0.00     0.180 C 
BRANCH  31  32
HETATM   32  O2  UNL     1      -9.568  50.070 -25.898  1.00  0.00    -0.390 OA
HETATM   33  H10 UNL     1      -8.774  50.249 -25.352  1.00  0.00     0.210 HD
ENDBRANCH  31  32
BRANCH  31  34
HETATM   34  C6  UNL     1      -8.884  48.132 -27.260  1.00  0.00     0.079 C 
HETATM   35  C7  UNL     1      -9.610  46.989 -27.979  1.00  0.00     0.048 C 
HETATM   36  C8  UNL     1      -7.462  47.680 -26.892  1.00  0.00     0.048 C 
BRANCH  34  37
HETATM   37  O3  UNL     1      -8.772  49.233 -28.172  1.00  0.00    -0.388 OA
HETATM   38  H17 UNL     1      -8.181  48.960 -28.895  1.00  0.00     0.210 HD
ENDBRANCH  34  37
ENDBRANCH  31  34
ENDBRANCH  28  31
ENDBRANCH  27  28
ENDBRANCH  25  27
ENDBRANCH   1  25
TORSDOF 8
ENDMDL
