MODEL 1
REMARK minimizedAffinity -7.51054907
REMARK CNNscore 0.781755507
REMARK CNNaffinity 6.56753874
REMARK  13 active torsions:
REMARK  status: ('A' for Active; 'I' for Inactive)
REMARK    1  A    between atoms: N1_2  and  C2_3 
REMARK    2  A    between atoms: C2_3  and  C3_4 
REMARK    3  A    between atoms: C3_4  and  C4_5 
REMARK    4  A    between atoms: C19_22  and  C23_27 
REMARK    5  A    between atoms: C20_23  and  O3_24 
REMARK    6  A    between atoms: C25_29  and  O4_30 
REMARK    7  A    between atoms: C27_32  and  C28_33 
REMARK    8  A    between atoms: C28_33  and  C30_35 
REMARK    9  A    between atoms: C30_35  and  C31_36 
REMARK   10  A    between atoms: C31_36  and  O5_37 
REMARK   11  A    between atoms: C31_36  and  C32_38 
REMARK   12  A    between atoms: C33_39  and  C35_41 
REMARK   13  A    between atoms: C35_41  and  O7_43 
ROOT
HETATM    1  C4  UNL     1      -1.503  52.980 -10.194  1.00  0.00     0.023 C 
HETATM    2  C5  UNL     1      -1.408  52.611 -11.696  1.00  0.00     0.024 C 
HETATM    3  C6  UNL     1      -1.192  51.719  -9.366  1.00  0.00     0.135 C 
HETATM    4  O1  UNL     1      -2.080  51.040  -8.842  1.00  0.00    -0.297 OA
HETATM    5  C7  UNL     1       0.253  51.312  -9.187  1.00  0.00     0.080 C 
HETATM    6  C8  UNL     1       1.201  52.148 -10.027  1.00  0.00     0.022 C 
HETATM    7  C9  UNL     1       1.088  53.659  -9.710  1.00  0.00    -0.004 C 
HETATM    8  C10 UNL     1       1.812  54.454 -10.868  1.00  0.00     0.015 C 
HETATM    9  C11 UNL     1       3.302  54.148 -11.121  1.00  0.00     0.001 C 
HETATM   10  C12 UNL     1       4.219  55.382 -11.135  1.00  0.00     0.000 C 
HETATM   11  C13 UNL     1       4.903  55.691  -9.791  1.00  0.00     0.001 C 
HETATM   12  C14 UNL     1       3.980  56.334  -8.744  1.00  0.00     0.011 C 
HETATM   13  C15 UNL     1       3.866  55.698  -7.282  1.00  0.00    -0.016 C 
HETATM   14  C16 UNL     1       4.155  54.199  -7.243  1.00  0.00     0.094 C 
HETATM   15  C17 UNL     1       3.050  53.400  -7.912  1.00  0.00     0.157 C 
HETATM   16  O2  UNL     1       3.161  52.179  -7.991  1.00  0.00    -0.293 OA
HETATM   17  C18 UNL     1       1.802  54.107  -8.402  1.00  0.00     0.003 C 
HETATM   18  C19 UNL     1       1.427  55.208  -7.699  1.00  0.00    -0.029 C 
HETATM   19  C20 UNL     1       0.096  55.843  -7.969  1.00  0.00     0.149 C 
HETATM   20  C21 UNL     1      -0.899  54.801  -8.462  1.00  0.00     0.043 C 
HETATM   21  C22 UNL     1      -0.462  54.104  -9.766  1.00  0.00     0.017 C 
HETATM   22  C23 UNL     1       2.388  55.875  -6.700  1.00  0.00     0.017 C 
HETATM   23  C24 UNL     1       2.116  55.211  -5.316  1.00  0.00     0.023 C 
HETATM   24  C25 UNL     1       2.363  57.424  -6.543  1.00  0.00     0.132 C 
HETATM   25  C26 UNL     1       3.774  57.796  -6.044  1.00  0.00     0.038 C 
HETATM   26  C27 UNL     1       4.680  56.551  -6.254  1.00  0.00     0.002 C 
ENDROOT
BRANCH  26  27
HETATM   27  C28 UNL     1       6.160  56.918  -6.554  1.00  0.00    -0.011 C 
HETATM   28  C29 UNL     1       7.072  55.691  -6.655  1.00  0.00     0.010 C 
BRANCH  27  29
HETATM   29  C30 UNL     1       6.747  57.952  -5.554  1.00  0.00     0.040 C 
BRANCH  29  30
HETATM   30  C31 UNL     1       7.698  57.451  -4.452  1.00  0.00     0.142 C 
BRANCH  30  31
HETATM   31  O5  UNL     1       7.077  57.687  -3.191  1.00  0.00    -0.392 OA
HETATM   32  H48 UNL     1       7.694  57.368  -2.509  1.00  0.00     0.210 HD
ENDBRANCH  30  31
BRANCH  30  33
HETATM   33  C32 UNL     1       9.073  58.053  -4.452  1.00  0.00     0.018 C 
HETATM   34  C33 UNL     1      10.247  57.489  -4.798  1.00  0.00     0.010 C 
HETATM   35  C34 UNL     1      10.463  56.062  -5.201  1.00  0.00     0.055 C 
BRANCH  34  36
HETATM   36  C35 UNL     1      11.443  58.365  -4.714  1.00  0.00     0.171 C 
HETATM   37  O6  UNL     1      11.448  59.576  -4.565  1.00  0.00    -0.646 OA
BRANCH  36  38
HETATM   38  O7  UNL     1      12.588  57.673  -4.842  1.00  0.00    -0.773 OA
HETATM   39  H53 UNL     1      13.283  58.361  -4.771  1.00  0.00     0.167 HD
ENDBRANCH  36  38
ENDBRANCH  34  36
ENDBRANCH  30  33
ENDBRANCH  29  30
ENDBRANCH  27  29
ENDBRANCH  26  27
BRANCH  24  40
HETATM   40  O4  UNL     1       1.397  57.907  -5.622  1.00  0.00    -0.394 OA
HETATM   41  H37 UNL     1       0.535  57.538  -5.919  1.00  0.00     0.210 HD
ENDBRANCH  24  40
BRANCH  19  42
HETATM   42  O3  UNL     1      -0.423  56.417  -6.772  1.00  0.00    -0.391 OA
HETATM   43  H29 UNL     1      -0.901  55.718  -6.290  1.00  0.00     0.210 HD
ENDBRANCH  19  42
BRANCH   1  44
HETATM   44  C3  UNL     1      -2.996  53.384  -9.926  1.00  0.00     0.047 C 
BRANCH  44  45
HETATM   45  C2  UNL     1      -4.003  52.904 -10.986  1.00  0.00     0.270 C 
BRANCH  45  46
HETATM   46  N1  UNL     1      -4.747  51.712 -10.570  1.00  0.00     0.079 N 
HETATM   47  C1  UNL     1      -4.356  50.512 -11.303  1.00  0.00     0.306 C 
HETATM   48  H4  UNL     1      -5.744  51.876 -10.725  1.00  0.00     0.315 HD
ENDBRANCH  45  46
ENDBRANCH  44  45
ENDBRANCH   1  44
TORSDOF 13
ENDMDL
