MODEL 1
REMARK minimizedAffinity -7.63137388
REMARK CNNscore 0.632187665
REMARK CNNaffinity 6.86418581
REMARK  8 active torsions:
REMARK  status: ('A' for Active; 'I' for Inactive)
REMARK    1  A    between atoms: C5_5  and  C6_6 
REMARK    2  A    between atoms: C6_6  and  O1_9 
REMARK    3  A    between atoms: C14_16  and  C15_17 
REMARK    4  A    between atoms: C16_19  and  O4_20 
REMARK    5  A    between atoms: C17_21  and  C18_22 
REMARK    6  A    between atoms: C19_24  and  O6_25 
REMARK    7  A    between atoms: C21_27  and  C22_28 
REMARK    8  A    between atoms: C22_28  and  C23_29 
ROOT
HETATM    1  C1  UNL     1      -1.027   9.112  10.257  1.00  0.00     0.019 C 
HETATM    2  C2  UNL     1      -0.831   8.887  11.571  1.00  0.00    -0.068 C 
HETATM    3  C3  UNL     1       0.545   8.787  12.042  1.00  0.00     0.003 C 
HETATM    4  C4  UNL     1       1.113   8.201  13.113  1.00  0.00    -0.019 C 
HETATM    5  C5  UNL     1       0.503   7.417  14.260  1.00  0.00     0.042 C 
HETATM    6  C9  UNL     1       0.365   5.903  13.920  1.00  0.00     0.014 C 
HETATM    7  C10 UNL     1      -0.231   5.536  12.546  1.00  0.00     0.039 C 
HETATM    8  C11 UNL     1      -1.778   5.399  12.401  1.00  0.00     0.068 C 
HETATM    9  C12 UNL     1      -2.042   5.372  10.868  1.00  0.00     0.047 C 
HETATM   10  O2  UNL     1      -2.078   4.053  12.911  1.00  0.00    -0.338 OA
HETATM   11  C13 UNL     1      -3.410   3.736  12.741  1.00  0.00     0.095 A 
HETATM   12  C14 UNL     1      -3.769   2.534  12.130  1.00  0.00     0.070 A 
HETATM   13  C16 UNL     1      -5.117   2.292  11.838  1.00  0.00     0.097 A 
HETATM   14  C17 UNL     1      -6.077   3.262  12.151  1.00  0.00     0.069 A 
HETATM   15  C19 UNL     1      -5.701   4.455  12.804  1.00  0.00     0.091 A 
HETATM   16  C20 UNL     1      -4.369   4.678  13.158  1.00  0.00     0.015 A 
HETATM   17  C21 UNL     1      -3.785   5.796  13.994  1.00  0.00     0.031 C 
HETATM   18  C26 UNL     1      -2.617   6.474  13.194  1.00  0.00     0.029 C 
HETATM   19  C27 UNL     1      -3.024   7.737  12.394  1.00  0.00     0.013 C 
HETATM   20  C28 UNL     1      -2.031   8.919  12.490  1.00  0.00     0.038 C 
ENDROOT
BRANCH   5  21
HETATM   21  C6  UNL     1       1.234   7.667  15.636  1.00  0.00     0.057 C 
HETATM   22  C7  UNL     1       2.712   7.249  15.562  1.00  0.00     0.046 C 
HETATM   23  C8  UNL     1       1.145   9.108  16.157  1.00  0.00     0.046 C 
BRANCH  21  24
HETATM   24  O1  UNL     1       0.620   6.813  16.617  1.00  0.00    -0.390 OA
HETATM   25  H12 UNL     1       1.067   6.953  17.469  1.00  0.00     0.210 HD
ENDBRANCH  21  24
ENDBRANCH   5  21
BRANCH  17  26
HETATM   26  C22 UNL     1      -4.673   6.792  14.786  1.00  0.00     0.014 C 
BRANCH  26  27
HETATM   27  C23 UNL     1      -6.123   6.341  15.102  1.00  0.00    -0.022 C 
HETATM   28  C24 UNL     1      -7.136   7.471  14.883  1.00  0.00     0.009 C 
HETATM   29  C25 UNL     1      -6.316   5.726  16.484  1.00  0.00     0.009 C 
ENDBRANCH  26  27
ENDBRANCH  17  26
BRANCH  12  30
HETATM   30  C15 UNL     1      -2.724   1.558  11.772  1.00  0.00     0.275 C 
HETATM   31  O3  UNL     1      -1.977   1.776  10.821  1.00  0.00    -0.301 OA
ENDBRANCH  12  30
BRANCH  13  32
HETATM   32  O4  UNL     1      -5.523   1.133  11.224  1.00  0.00    -0.359 OA
HETATM   33  H21 UNL     1      -4.732   0.565  11.063  1.00  0.00     0.217 HD
ENDBRANCH  13  32
BRANCH  15  34
HETATM   34  O6  UNL     1      -6.622   5.425  13.084  1.00  0.00    -0.359 OA
HETATM   35  H23 UNL     1      -7.508   5.131  12.770  1.00  0.00     0.217 HD
ENDBRANCH  15  34
BRANCH  14  36
HETATM   36  C18 UNL     1      -7.490   3.015  11.790  1.00  0.00     0.275 C 
HETATM   37  O5  UNL     1      -8.352   2.934  12.662  1.00  0.00    -0.301 OA
ENDBRANCH  14  36
TORSDOF 8
ENDMDL
