MODEL 1
REMARK minimizedAffinity -9.27148342
REMARK  7 active torsions:
REMARK  status: ('A' for Active; 'I' for Inactive)
REMARK    1  A    between atoms: C2_2  and  C3_3 
REMARK    2  A    between atoms: C2_2  and  C9_11 
REMARK    3  A    between atoms: C3_3  and  C4_4 
REMARK    4  A    between atoms: C5_5  and  C6_6 
REMARK    5  A    between atoms: C6_6  and  O1_9 
REMARK    6  A    between atoms: O1_9  and  O2_10 
REMARK    7  A    between atoms: C10_12  and  O3_13 
ROOT
HETATM    1  C9  UNL     1      -1.856  51.529 -23.211  1.00  0.00     0.028 C 
HETATM    2  C10 UNL     1      -2.861  52.671 -23.578  1.00  0.00     0.124 C 
HETATM    3  C11 UNL     1      -4.286  52.131 -23.338  1.00  0.00     0.046 C 
HETATM    4  C12 UNL     1      -4.108  50.604 -23.223  1.00  0.00    -0.010 C 
HETATM    5  C13 UNL     1      -4.040  50.046 -24.681  1.00  0.00     0.021 C 
HETATM    6  C14 UNL     1      -5.214  49.809 -22.529  1.00  0.00    -0.070 C 
HETATM    7  C15 UNL     1      -6.514  50.150 -22.646  1.00  0.00    -0.022 C 
HETATM    8  C16 UNL     1      -7.660  49.360 -22.075  1.00  0.00     0.034 C 
HETATM    9  C17 UNL     1      -7.182  48.260 -21.113  1.00  0.00     0.013 C 
HETATM   10  C18 UNL     1      -8.300  47.390 -20.457  1.00  0.00     0.018 C 
HETATM   11  C19 UNL     1      -9.330  48.295 -19.745  1.00  0.00     0.023 C 
HETATM   12  C20 UNL     1      -9.056  46.471 -21.424  1.00  0.00     0.023 C 
HETATM   13  C21 UNL     1      -7.645  46.504 -19.382  1.00  0.00     0.135 C 
HETATM   14  O4  UNL     1      -8.311  45.901 -18.538  1.00  0.00    -0.297 OA
HETATM   15  C22 UNL     1      -6.133  46.406 -19.376  1.00  0.00     0.080 C 
HETATM   16  C23 UNL     1      -5.622  46.255 -20.801  1.00  0.00     0.017 C 
HETATM   17  C24 UNL     1      -5.954  47.471 -21.717  1.00  0.00    -0.031 C 
HETATM   18  C25 UNL     1      -6.206  46.915 -23.144  1.00  0.00     0.016 C 
HETATM   19  C26 UNL     1      -4.778  48.534 -21.774  1.00  0.00     0.024 C 
HETATM   20  C27 UNL     1      -3.416  47.998 -22.277  1.00  0.00     0.010 C 
HETATM   21  C28 UNL     1      -2.288  49.052 -22.398  1.00  0.00     0.011 C 
HETATM   22  C29 UNL     1      -2.765  50.521 -22.417  1.00  0.00    -0.026 C 
HETATM   23  C30 UNL     1      -2.892  51.036 -20.946  1.00  0.00     0.016 C 
ENDROOT
BRANCH   1  24
HETATM   24  C2  UNL     1      -0.550  52.060 -22.525  1.00  0.00    -0.008 C 
HETATM   25  C1  UNL     1      -0.011  51.063 -21.488  1.00  0.00     0.011 C 
BRANCH  24  26
HETATM   26  C3  UNL     1       0.552  52.375 -23.573  1.00  0.00     0.031 C 
BRANCH  26  27
HETATM   27  C4  UNL     1       0.189  51.973 -24.975  1.00  0.00    -0.027 C 
HETATM   28  C5  UNL     1       0.408  52.734 -26.062  1.00  0.00     0.009 C 
BRANCH  28  29
HETATM   29  C6  UNL     1       0.068  52.383 -27.502  1.00  0.00     0.106 C 
HETATM   30  C7  UNL     1      -1.058  51.340 -27.491  1.00  0.00     0.053 C 
HETATM   31  C8  UNL     1       1.286  51.791 -28.225  1.00  0.00     0.053 C 
BRANCH  29  32
HETATM   32  O1  UNL     1      -0.462  53.510 -28.232  1.00  0.00    -0.229 OA
BRANCH  32  33
HETATM   33  O2  UNL     1      -1.895  53.606 -27.955  1.00  0.00    -0.249 OA
HETATM   34  H15 UNL     1      -1.872  54.505 -27.584  1.00  0.00     0.253 HD
ENDBRANCH  32  33
ENDBRANCH  29  32
ENDBRANCH  28  29
ENDBRANCH  26  27
ENDBRANCH  24  26
ENDBRANCH   1  24
BRANCH   2  35
HETATM   35  O3  UNL     1      -2.749  53.019 -24.955  1.00  0.00    -0.395 OA
HETATM   36  H18 UNL     1      -1.847  53.332 -25.126  1.00  0.00     0.210 HD
ENDBRANCH   2  35
TORSDOF 7
ENDMDL
