MODEL 1
REMARK minimizedAffinity -10.1939058
REMARK  8 active torsions:
REMARK  status: ('A' for Active; 'I' for Inactive)
REMARK    1  A    between atoms: C2_2  and  C3_3 
REMARK    2  A    between atoms: C2_2  and  C27_30 
REMARK    3  A    between atoms: C3_3  and  C4_4 
REMARK    4  A    between atoms: C4_4  and  C5_5 
REMARK    5  A    between atoms: C5_5  and  C7_7 
REMARK    6  A    between atoms: C26_28  and  O3_29 
REMARK    7  A    between atoms: C27_30  and  C29_32 
REMARK    8  A    between atoms: C29_32  and  O5_34 
ROOT
HETATM    1  C7  UNL     1       1.142   6.807  13.486  1.00  0.00    -0.002 C 
HETATM    2  C8  UNL     1       0.309   7.867  14.253  1.00  0.00     0.006 C 
HETATM    3  C9  UNL     1      -1.165   7.507  14.026  1.00  0.00     0.010 C 
HETATM    4  C10 UNL     1      -1.125   6.077  13.487  1.00  0.00     0.027 C 
HETATM    5  C11 UNL     1      -2.334   5.394  12.877  1.00  0.00    -0.036 C 
HETATM    6  C12 UNL     1      -2.174   4.311  12.073  1.00  0.00     0.002 C 
HETATM    7  C13 UNL     1      -0.768   3.912  11.654  1.00  0.00     0.157 C 
HETATM    8  O1  UNL     1      -0.583   2.971  10.883  1.00  0.00    -0.293 OA
HETATM    9  C14 UNL     1       0.434   4.654  12.214  1.00  0.00     0.093 C 
HETATM   10  C15 UNL     1       0.108   6.108  12.549  1.00  0.00    -0.026 C 
HETATM   11  C16 UNL     1      -0.153   6.892  11.245  1.00  0.00     0.016 C 
HETATM   12  C17 UNL     1      -3.351   3.456  11.551  1.00  0.00    -0.008 C 
HETATM   13  C18 UNL     1      -3.569   3.857  10.069  1.00  0.00     0.021 C 
HETATM   14  C19 UNL     1      -3.054   1.922  11.631  1.00  0.00     0.022 C 
HETATM   15  C20 UNL     1      -4.251   1.015  11.910  1.00  0.00     0.080 C 
HETATM   16  C21 UNL     1      -5.535   1.598  11.386  1.00  0.00     0.131 C 
HETATM   17  O2  UNL     1      -6.301   0.943  10.680  1.00  0.00    -0.298 OA
HETATM   18  C22 UNL     1      -5.887   3.004  11.848  1.00  0.00     0.056 C 
HETATM   19  C23 UNL     1      -7.025   2.907  12.864  1.00  0.00     0.018 C 
HETATM   20  C24 UNL     1      -4.634   3.714  12.419  1.00  0.00     0.012 C 
HETATM   21  C25 UNL     1      -4.877   5.210  12.604  1.00  0.00     0.042 C 
HETATM   22  C26 UNL     1      -3.697   5.891  13.297  1.00  0.00     0.148 C 
ENDROOT
BRANCH   1  23
HETATM   23  C5  UNL     1       2.514   7.338  12.972  1.00  0.00    -0.014 C 
HETATM   24  C6  UNL     1       3.410   7.993  14.029  1.00  0.00     0.010 C 
BRANCH  23  25
HETATM   25  C4  UNL     1       2.335   8.245  11.730  1.00  0.00     0.009 C 
BRANCH  25  26
HETATM   26  C3  UNL     1       3.365   8.025  10.603  1.00  0.00     0.034 C 
BRANCH  26  27
HETATM   27  C2  UNL     1       3.838   6.615  10.291  1.00  0.00    -0.075 C 
HETATM   28  C1  UNL     1       5.034   6.147  10.696  1.00  0.00     0.015 C 
BRANCH  27  29
HETATM   29  C27 UNL     1       2.924   5.732   9.438  1.00  0.00     0.107 C 
HETATM   30  C28 UNL     1       2.512   6.396   8.124  1.00  0.00     0.026 C 
BRANCH  29  31
HETATM   31  C29 UNL     1       3.527   4.355   9.158  1.00  0.00     0.147 C 
HETATM   32  O4  UNL     1       4.284   4.028   8.260  1.00  0.00    -0.650 OA
BRANCH  31  33
HETATM   33  O5  UNL     1       3.108   3.427  10.048  1.00  0.00    -0.776 OA
HETATM   34  H42 UNL     1       3.562   2.608   9.757  1.00  0.00     0.167 HD
ENDBRANCH  31  33
ENDBRANCH  29  31
ENDBRANCH  27  29
ENDBRANCH  26  27
ENDBRANCH  25  26
ENDBRANCH  23  25
ENDBRANCH   1  23
BRANCH  22  35
HETATM   35  O3  UNL     1      -3.803   7.279  13.005  1.00  0.00    -0.391 OA
HETATM   36  H37 UNL     1      -4.657   7.589  13.350  1.00  0.00     0.210 HD
ENDBRANCH  22  35
TORSDOF 8
ENDMDL
