MODEL 1
REMARK minimizedAffinity -7.29259348
REMARK CNNscore 0.608163953
REMARK CNNaffinity 6.89235163
REMARK  6 active torsions:
REMARK  status: ('A' for Active; 'I' for Inactive)
REMARK    1  A    between atoms: C11_13  and  C12_14 
REMARK    2  A    between atoms: C12_14  and  O3_15 
REMARK    3  A    between atoms: C13_16  and  O4_17 
REMARK    4  A    between atoms: C22_27  and  O6_28 
REMARK    5  A    between atoms: C23_29  and  O7_30 
REMARK    6  A    between atoms: C29_37  and  C30_38 
ROOT
HETATM    1  C1  UNL     1     -18.004   4.983  12.512  1.00  0.00     0.046 C 
HETATM    2  C2  UNL     1     -17.264   5.786  13.548  1.00  0.00    -0.056 C 
HETATM    3  C3  UNL     1     -15.942   5.600  13.765  1.00  0.00    -0.004 C 
HETATM    4  C4  UNL     1     -15.099   6.448  14.712  1.00  0.00     0.150 C 
HETATM    5  C5  UNL     1     -13.776   6.810  14.032  1.00  0.00     0.270 C 
HETATM    6  O1  UNL     1     -13.661   7.102  12.848  1.00  0.00    -0.264 OA
HETATM    7  O2  UNL     1     -12.760   6.804  14.938  1.00  0.00    -0.315 OA
HETATM    8  C6  UNL     1     -11.472   7.291  14.509  1.00  0.00     0.139 C 
HETATM    9  C7  UNL     1     -11.473   8.817  14.409  1.00  0.00     0.065 C 
HETATM   10  C8  UNL     1     -10.056   9.404  14.391  1.00  0.00     0.131 C 
HETATM   11  C9  UNL     1      -9.694  10.504  15.425  1.00  0.00     0.059 C 
HETATM   12  C10 UNL     1     -10.433  10.558  16.744  1.00  0.00    -0.017 C 
HETATM   13  C11 UNL     1     -11.213  11.568  17.197  1.00  0.00    -0.031 C 
HETATM   14  C13 UNL     1     -11.847  11.624  18.591  1.00  0.00     0.156 C 
HETATM   15  C14 UNL     1     -12.021  10.312  19.417  1.00  0.00     0.037 C 
HETATM   16  C15 UNL     1     -12.707  10.580  20.762  1.00  0.00     0.017 C 
HETATM   17  C16 UNL     1     -12.746   9.243  18.633  1.00  0.00    -0.020 C 
HETATM   18  C17 UNL     1     -13.969   9.367  18.091  1.00  0.00    -0.003 C 
HETATM   19  C18 UNL     1     -14.389   8.454  17.057  1.00  0.00     0.008 C 
HETATM   20  C19 UNL     1     -15.513   8.529  16.331  1.00  0.00    -0.019 C 
HETATM   21  C20 UNL     1     -16.745   9.339  16.631  1.00  0.00     0.206 C 
HETATM   22  O5  UNL     1     -17.850   8.609  16.043  1.00  0.00    -0.375 OA
HETATM   23  C21 UNL     1     -17.293   7.395  15.495  1.00  0.00     0.194 C 
HETATM   24  C22 UNL     1     -18.077   6.833  14.298  1.00  0.00     0.179 C 
HETATM   25  C23 UNL     1     -15.853   7.734  15.105  1.00  0.00     0.128 C 
HETATM   26  O8  UNL     1      -9.024   8.423  14.300  1.00  0.00    -0.349 OA
HETATM   27  C24 UNL     1      -9.057   7.269  15.132  1.00  0.00     0.167 C 
HETATM   28  C25 UNL     1      -8.115   7.434  16.325  1.00  0.00     0.069 C 
HETATM   29  C26 UNL     1      -6.687   7.728  15.874  1.00  0.00     0.012 C 
HETATM   30  C27 UNL     1      -6.371   7.137  14.488  1.00  0.00     0.011 C 
HETATM   31  C28 UNL     1      -4.861   6.948  14.354  1.00  0.00     0.012 C 
HETATM   32  C29 UNL     1      -7.229   5.872  14.250  1.00  0.00     0.132 C 
HETATM   33  O9  UNL     1      -8.635   6.158  14.330  1.00  0.00    -0.349 OA
HETATM   34  C33 UNL     1     -10.470   6.905  15.587  1.00  0.00     0.101 C 
ENDROOT
BRANCH  32  35
HETATM   35  C30 UNL     1      -6.957   5.164  12.886  1.00  0.00     0.007 C 
HETATM   36  C31 UNL     1      -8.187   5.129  11.965  1.00  0.00     0.012 C 
HETATM   37  C32 UNL     1      -6.472   3.721  13.081  1.00  0.00     0.012 C 
ENDBRANCH  32  35
BRANCH  13  38
HETATM   38  C12 UNL     1     -11.552  12.794  16.374  1.00  0.00     0.200 C 
BRANCH  38  39
HETATM   39  O3  UNL     1     -12.495  12.440  15.374  1.00  0.00    -0.397 OA
HETATM   40  H15 UNL     1     -12.170  11.613  14.967  1.00  0.00     0.209 HD
ENDBRANCH  38  39
ENDBRANCH  13  38
BRANCH  14  41
HETATM   41  O4  UNL     1     -11.054  12.562  19.333  1.00  0.00    -0.390 OA
HETATM   42  H17 UNL     1     -10.168  12.163  19.429  1.00  0.00     0.210 HD
ENDBRANCH  14  41
BRANCH  25  43
HETATM   43  O7  UNL     1     -15.841   8.700  14.033  1.00  0.00    -0.381 OA
HETATM   44  H30 UNL     1     -15.728   8.245  13.177  1.00  0.00     0.211 HD
ENDBRANCH  25  43
BRANCH  24  45
HETATM   45  O6  UNL     1     -19.293   6.228  14.746  1.00  0.00    -0.389 OA
HETATM   46  H29 UNL     1     -19.065   5.554  15.406  1.00  0.00     0.210 HD
ENDBRANCH  24  45
TORSDOF 6
ENDMDL
