MODEL 1
REMARK minimizedAffinity -6.31727743
REMARK CNNscore 0.383067369
REMARK CNNaffinity 5.30837774
REMARK  3 active torsions:
REMARK  status: ('A' for Active; 'I' for Inactive)
REMARK    1  A    between atoms: C2_2  and  O1_3 
REMARK    2  A    between atoms: C2_2  and  C3_4 
REMARK    3  A    between atoms: C23_31  and  O9_32 
ROOT
HETATM    1  C3  UNL     1     -17.870   4.951  13.746  1.00  0.00     0.133 C 
HETATM    2  C4  UNL     1     -18.156   3.790  12.792  1.00  0.00     0.016 C 
HETATM    3  C5  UNL     1     -18.982   2.753  13.012  1.00  0.00    -0.001 C 
HETATM    4  C6  UNL     1     -19.082   1.591  12.161  1.00  0.00     0.006 C 
HETATM    5  C7  UNL     1     -18.011   0.856  11.827  1.00  0.00     0.082 C 
HETATM    6  C8  UNL     1     -18.200  -0.461  11.200  1.00  0.00     0.283 C 
HETATM    7  O2  UNL     1     -19.016  -0.733  10.338  1.00  0.00    -0.260 OA
HETATM    8  O3  UNL     1     -17.363  -1.317  11.841  1.00  0.00    -0.312 OA
HETATM    9  C9  UNL     1     -17.635  -2.701  11.661  1.00  0.00     0.146 C 
HETATM   10  C10 UNL     1     -16.787  -3.343  10.536  1.00  0.00     0.068 C 
HETATM   11  C11 UNL     1     -16.262  -4.658  11.153  1.00  0.00     0.162 C 
HETATM   12  O4  UNL     1     -14.934  -4.504  11.699  1.00  0.00    -0.377 OA
HETATM   13  C12 UNL     1     -14.785  -3.378  12.583  1.00  0.00     0.127 C 
HETATM   14  C13 UNL     1     -13.398  -3.395  13.251  1.00  0.00     0.032 C 
HETATM   15  C14 UNL     1     -13.439  -3.589  14.771  1.00  0.00     0.003 C 
HETATM   16  C15 UNL     1     -14.435  -2.681  15.515  1.00  0.00     0.007 C 
HETATM   17  C16 UNL     1     -15.652  -2.211  14.667  1.00  0.00     0.017 C 
HETATM   18  C17 UNL     1     -15.344  -0.808  14.098  1.00  0.00     0.183 C 
HETATM   19  O5  UNL     1     -16.262   0.154  14.655  1.00  0.00    -0.319 OA
HETATM   20  C18 UNL     1     -15.736   1.112  15.462  1.00  0.00     0.291 C 
HETATM   21  O6  UNL     1     -14.568   1.202  15.806  1.00  0.00    -0.262 OA
HETATM   22  C19 UNL     1     -16.766   2.120  15.811  1.00  0.00     0.259 A 
HETATM   23  O7  UNL     1     -16.400   3.115  16.778  1.00  0.00    -0.356 OA
HETATM   24  C20 UNL     1     -16.582   3.585  15.432  1.00  0.00     0.128 A 
HETATM   25  C21 UNL     1     -15.317   4.052  14.761  1.00  0.00     0.070 C 
HETATM   26  C22 UNL     1     -15.504   5.446  14.173  1.00  0.00     0.172 C 
HETATM   27  O8  UNL     1     -16.596   5.481  13.253  1.00  0.00    -0.371 OA
HETATM   28  C23 UNL     1     -17.791   4.471  15.243  1.00  0.00     0.197 C 
HETATM   29  C24 UNL     1     -15.924  -3.325  13.625  1.00  0.00     0.034 C 
HETATM   30  C25 UNL     1     -17.334  -3.524  12.953  1.00  0.00     0.025 C 
HETATM   31  C26 UNL     1     -18.471  -3.395  13.963  1.00  0.00     0.022 C 
HETATM   32  C27 UNL     1     -17.190  -4.885  12.304  1.00  0.00     0.118 A 
HETATM   33  C28 UNL     1     -17.454  -6.229  12.934  1.00  0.00     0.210 A 
HETATM   34  O10 UNL     1     -18.387  -5.614  12.022  1.00  0.00    -0.371 OA
ENDROOT
BRANCH   1  35
HETATM   35  C2  UNL     1     -18.873   6.135  13.564  1.00  0.00     0.155 C 
HETATM   36  C1  UNL     1     -20.349   5.772  13.670  1.00  0.00     0.042 C 
BRANCH  35  37
HETATM   37  O1  UNL     1     -18.667   6.770  12.287  1.00  0.00    -0.393 OA
HETATM   38  H5  UNL     1     -17.696   6.847  12.199  1.00  0.00     0.210 HD
ENDBRANCH  35  37
ENDBRANCH   1  35
BRANCH  28  39
HETATM   39  O9  UNL     1     -17.697   5.568  16.160  1.00  0.00    -0.389 OA
HETATM   40  H30 UNL     1     -17.414   5.191  17.015  1.00  0.00     0.210 HD
ENDBRANCH  28  39
TORSDOF 3
ENDMDL
