MODEL 1
REMARK minimizedAffinity -9.54465389
REMARK  8 active torsions:
REMARK  status: ('A' for Active; 'I' for Inactive)
REMARK    1  A    between atoms: O1_2  and  C2_3 
REMARK    2  A    between atoms: C2_3  and  C5_6 
REMARK    3  A    between atoms: C6_7  and  C7_8 
REMARK    4  A    between atoms: C7_8  and  C8_9 
REMARK    5  A    between atoms: C8_9  and  C10_11 
REMARK    6  A    between atoms: C16_17  and  O2_18 
REMARK    7  A    between atoms: C19_21  and  C21_23 
REMARK    8  A    between atoms: C21_23  and  O3_24 
ROOT
HETATM    1  C10 UNL     1      -4.197  50.317 -25.182  1.00  0.00    -0.002 C 
HETATM    2  C11 UNL     1      -3.760  51.679 -24.675  1.00  0.00     0.006 C 
HETATM    3  C12 UNL     1      -4.596  51.875 -23.418  1.00  0.00     0.011 C 
HETATM    4  C13 UNL     1      -4.932  50.455 -22.825  1.00  0.00    -0.030 C 
HETATM    5  C14 UNL     1      -6.475  50.403 -22.703  1.00  0.00     0.016 C 
HETATM    6  C15 UNL     1      -4.300  50.340 -21.391  1.00  0.00     0.032 C 
HETATM    7  C16 UNL     1      -4.822  49.235 -20.430  1.00  0.00     0.124 C 
HETATM    8  C17 UNL     1      -3.911  48.961 -19.216  1.00  0.00     0.038 C 
HETATM    9  C18 UNL     1      -2.964  50.121 -18.849  1.00  0.00     0.015 C 
HETATM   10  C19 UNL     1      -2.211  49.874 -17.495  1.00  0.00     0.042 C 
HETATM   11  C20 UNL     1      -1.845  48.399 -17.209  1.00  0.00     0.026 C 
HETATM   12  C22 UNL     1      -0.900  50.660 -17.468  1.00  0.00     0.137 C 
HETATM   13  O4  UNL     1      -0.539  51.287 -16.464  1.00  0.00    -0.297 OA
HETATM   14  C23 UNL     1       0.015  50.591 -18.671  1.00  0.00     0.080 C 
HETATM   15  C24 UNL     1      -0.616  49.899 -19.870  1.00  0.00     0.018 C 
HETATM   16  C25 UNL     1      -2.036  50.373 -20.049  1.00  0.00    -0.026 A 
HETATM   17  C26 UNL     1      -2.151  51.642 -20.854  1.00  0.00     0.021 A 
HETATM   18  C27 UNL     1      -2.764  50.369 -21.410  1.00  0.00    -0.025 A 
HETATM   19  C28 UNL     1      -2.098  49.682 -22.582  1.00  0.00     0.011 C 
HETATM   20  C29 UNL     1      -3.033  48.787 -23.386  1.00  0.00     0.011 C 
HETATM   21  C30 UNL     1      -4.348  49.435 -23.891  1.00  0.00    -0.032 C 
HETATM   22  C31 UNL     1      -5.305  48.268 -24.257  1.00  0.00     0.016 C 
ENDROOT
BRANCH   1  23
HETATM   23  C8  UNL     1      -3.372  49.727 -26.365  1.00  0.00    -0.010 C 
HETATM   24  C9  UNL     1      -3.893  48.396 -26.921  1.00  0.00     0.010 C 
BRANCH  23  25
HETATM   25  C7  UNL     1      -1.883  49.520 -25.982  1.00  0.00     0.031 C 
BRANCH  25  26
HETATM   26  C6  UNL     1      -0.955  50.480 -26.671  1.00  0.00    -0.027 C 
HETATM   27  C5  UNL     1       0.128  51.029 -26.088  1.00  0.00     0.006 C 
BRANCH  27  28
HETATM   28  C2  UNL     1       1.087  52.029 -26.708  1.00  0.00     0.070 C 
HETATM   29  C3  UNL     1       2.503  51.440 -26.611  1.00  0.00     0.050 C 
HETATM   30  C4  UNL     1       0.679  52.224 -28.176  1.00  0.00     0.050 C 
BRANCH  28  31
HETATM   31  O1  UNL     1       0.990  53.255 -25.973  1.00  0.00    -0.382 OA
HETATM   32  C1  UNL     1      -0.122  53.410 -25.109  1.00  0.00     0.202 C 
ENDBRANCH  28  31
ENDBRANCH  27  28
ENDBRANCH  25  26
ENDBRANCH  23  25
ENDBRANCH   1  23
BRANCH   7  33
HETATM   33  O2  UNL     1      -5.046  47.991 -21.087  1.00  0.00    -0.395 OA
HETATM   34  H28 UNL     1      -5.489  47.398 -20.455  1.00  0.00     0.210 HD
ENDBRANCH   7  33
BRANCH  10  35
HETATM   35  C21 UNL     1      -3.092  50.335 -16.307  1.00  0.00     0.181 C 
BRANCH  35  36
HETATM   36  O3  UNL     1      -3.314  49.293 -15.367  1.00  0.00    -0.400 OA
HETATM   37  H37 UNL     1      -4.183  48.897 -15.584  1.00  0.00     0.209 HD
ENDBRANCH  35  36
ENDBRANCH  10  35
TORSDOF 8
ENDMDL
