MODEL 1
REMARK minimizedAffinity -6.21945143
REMARK CNNscore 0.592755258
REMARK CNNaffinity 5.40374422
REMARK  4 active torsions:
REMARK  status: ('A' for Active; 'I' for Inactive)
REMARK    1  A    between atoms: C2_2  and  C3_3 
REMARK    2  A    between atoms: C2_2  and  C9_9 
REMARK    3  A    between atoms: C3_3  and  C4_4 
REMARK    4  A    between atoms: C4_4  and  C5_5 
ROOT
HETATM    1  C9  UNL     1      -5.349 -10.432   9.024  1.00  0.00     0.018 C 
HETATM    2  C10 UNL     1      -4.347 -10.117  10.184  1.00  0.00     0.010 C 
HETATM    3  C11 UNL     1      -5.175  -9.642  11.388  1.00  0.00     0.011 C 
HETATM    4  C12 UNL     1      -6.544 -10.309  11.199  1.00  0.00    -0.032 C 
HETATM    5  C13 UNL     1      -6.355 -11.829  11.543  1.00  0.00     0.016 C 
HETATM    6  C14 UNL     1      -6.727 -10.086   9.667  1.00  0.00     0.002 C 
HETATM    7  C15 UNL     1      -7.975 -10.829   9.194  1.00  0.00     0.006 C 
HETATM    8  C16 UNL     1      -9.217 -10.305   9.931  1.00  0.00     0.006 C 
HETATM    9  C17 UNL     1      -9.105 -10.333  11.479  1.00  0.00     0.003 C 
HETATM   10  C18 UNL     1     -10.453  -9.921  12.247  1.00  0.00    -0.035 C 
HETATM   11  C19 UNL     1     -11.184  -8.788  11.487  1.00  0.00     0.016 C 
HETATM   12  C20 UNL     1     -11.362 -11.191  12.223  1.00  0.00     0.017 C 
HETATM   13  C21 UNL     1     -12.613 -11.107  13.072  1.00  0.00     0.080 C 
HETATM   14  C22 UNL     1     -12.248 -10.793  14.501  1.00  0.00     0.135 C 
HETATM   15  O1  UNL     1     -12.698 -11.478  15.422  1.00  0.00    -0.297 OA
HETATM   16  C23 UNL     1     -11.397  -9.545  14.747  1.00  0.00     0.017 C 
HETATM   17  C24 UNL     1     -10.948  -9.531  16.229  1.00  0.00     0.023 C 
HETATM   18  C25 UNL     1     -12.320  -8.314  14.588  1.00  0.00     0.023 C 
HETATM   19  C26 UNL     1     -10.163  -9.496  13.751  1.00  0.00     0.009 C 
HETATM   20  C27 UNL     1      -8.935 -10.287  14.253  1.00  0.00     0.007 C 
HETATM   21  C28 UNL     1      -7.637  -9.909  13.527  1.00  0.00     0.011 C 
HETATM   22  C29 UNL     1      -7.776  -9.664  11.997  1.00  0.00    -0.032 C 
HETATM   23  C30 UNL     1      -7.823  -8.124  11.779  1.00  0.00     0.016 C 
ENDROOT
BRANCH   1  24
HETATM   24  C2  UNL     1      -5.023  -9.770   7.674  1.00  0.00    -0.084 C 
HETATM   25  C1  UNL     1      -5.758  -8.786   7.118  1.00  0.00     0.014 C 
BRANCH  24  26
HETATM   26  C3  UNL     1      -3.766 -10.198   6.934  1.00  0.00     0.037 C 
BRANCH  26  27
HETATM   27  C4  UNL     1      -3.306  -9.161   5.904  1.00  0.00     0.031 C 
BRANCH  27  28
HETATM   28  C5  UNL     1      -2.561  -9.809   4.766  1.00  0.00    -0.024 C 
HETATM   29  C6  UNL     1      -2.968  -9.964   3.492  1.00  0.00    -0.091 C 
HETATM   30  C7  UNL     1      -4.306  -9.537   2.954  1.00  0.00     0.042 C 
HETATM   31  C8  UNL     1      -2.074 -10.623   2.475  1.00  0.00     0.042 C 
ENDBRANCH  27  28
ENDBRANCH  26  27
ENDBRANCH  24  26
ENDBRANCH   1  24
TORSDOF 4
ENDMDL
