MODEL 1
REMARK minimizedAffinity -6.96677685
REMARK CNNscore 0.824461639
REMARK CNNaffinity 8.02003956
REMARK  12 active torsions:
REMARK  status: ('A' for Active; 'I' for Inactive)
REMARK    1  A    between atoms: C2_2  and  O2_4 
REMARK    2  A    between atoms: O2_4  and  C3_5 
REMARK    3  A    between atoms: C4_6  and  O3_7 
REMARK    4  A    between atoms: O3_7  and  C5_8 
REMARK    5  A    between atoms: C5_8  and  C6_10 
REMARK    6  A    between atoms: C12_16  and  C13_17 
REMARK    7  A    between atoms: C13_17  and  O5_18 
REMARK    8  A    between atoms: O5_18  and  C14_19 
REMARK    9  A    between atoms: C14_19  and  C15_21 
REMARK   10  A    between atoms: C20_28  and  O7_29 
REMARK   11  A    between atoms: O7_29  and  C21_30 
REMARK   12  A    between atoms: C21_30  and  C22_32 
ROOT
HETATM    1  C3  UNL     1       0.966  53.904  -9.036  1.00  0.00     0.169 C 
HETATM    2  C4  UNL     1       1.598  53.639 -10.432  1.00  0.00     0.178 C 
HETATM    3  C12 UNL     1       1.285  52.201 -11.003  1.00  0.00     0.069 C 
HETATM    4  C20 UNL     1       1.335  52.310 -12.583  1.00  0.00     0.148 C 
HETATM    5  C25 UNL     1       0.339  51.410 -13.339  1.00  0.00     0.034 C 
HETATM    6  C26 UNL     1      -0.004  50.146 -12.572  1.00  0.00     0.010 C 
HETATM    7  C27 UNL     1      -0.665  50.446 -11.212  1.00  0.00     0.017 C 
HETATM    8  C28 UNL     1      -0.528  49.213 -10.311  1.00  0.00     0.013 C 
HETATM    9  C29 UNL     1      -0.176  51.789 -10.586  1.00  0.00     0.080 C 
HETATM   10  C30 UNL     1      -0.420  51.880  -9.076  1.00  0.00     0.050 C 
HETATM   11  C31 UNL     1      -0.482  53.384  -8.905  1.00  0.00     0.054 C 
HETATM   12  C32 UNL     1      -1.440  53.745 -10.057  1.00  0.00     0.061 C 
HETATM   13  C33 UNL     1      -1.412  55.202 -10.532  1.00  0.00     0.046 C 
HETATM   14  C34 UNL     1      -2.911  53.420  -9.714  1.00  0.00     0.046 C 
HETATM   15  O9  UNL     1      -1.044  52.856 -11.128  1.00  0.00    -0.368 OA
ENDROOT
BRANCH   3  16
HETATM   16  C13 UNL     1       2.379  51.195 -10.514  1.00  0.00     0.197 C 
BRANCH  16  17
HETATM   17  O5  UNL     1       3.721  51.630 -10.785  1.00  0.00    -0.316 OA
BRANCH  17  18
HETATM   18  C14 UNL     1       4.646  50.639 -10.655  1.00  0.00     0.294 C 
HETATM   19  O6  UNL     1       4.744  49.659 -11.377  1.00  0.00    -0.259 OA
BRANCH  18  20
HETATM   20  C15 UNL     1       5.532  50.870  -9.496  1.00  0.00     0.054 A 
HETATM   21  C16 UNL     1       5.090  51.312  -8.246  1.00  0.00     0.020 A 
HETATM   22  C17 UNL     1       6.015  51.502  -7.219  1.00  0.00     0.018 A 
HETATM   23  C18 UNL     1       7.353  51.244  -7.479  1.00  0.00     0.087 A 
HETATM   24  N1  UNL     1       7.816  50.827  -8.676  1.00  0.00    -0.374 N 
HETATM   25  C19 UNL     1       6.895  50.652  -9.658  1.00  0.00     0.105 A 
ATOM     26  H1  UNL     1       8.809  50.654  -8.835  1.00  0.00     0.164 HD
ENDBRANCH  18  20
ENDBRANCH  17  18
ENDBRANCH  16  17
ENDBRANCH   3  16
BRANCH   2  27
HETATM   27  O3  UNL     1       3.035  53.822 -10.374  1.00  0.00    -0.308 OA
BRANCH  27  28
HETATM   28  C5  UNL     1       3.513  55.090 -10.414  1.00  0.00     0.293 C 
HETATM   29  O4  UNL     1       3.083  56.000 -11.106  1.00  0.00    -0.259 OA
BRANCH  28  30
HETATM   30  C6  UNL     1       4.657  55.242  -9.478  1.00  0.00     0.039 A 
HETATM   31  C7  UNL     1       5.841  54.549  -9.766  1.00  0.00     0.017 A 
HETATM   32  C8  UNL     1       6.950  54.671  -8.926  1.00  0.00     0.001 A 
HETATM   33  C9  UNL     1       6.880  55.483  -7.793  1.00  0.00     0.000 A 
HETATM   34  C10 UNL     1       5.705  56.174  -7.498  1.00  0.00     0.001 A 
HETATM   35  C11 UNL     1       4.594  56.057  -8.338  1.00  0.00     0.017 A 
ENDBRANCH  28  30
ENDBRANCH  27  28
ENDBRANCH   2  27
BRANCH   4  36
HETATM   36  O7  UNL     1       2.653  51.958 -13.062  1.00  0.00    -0.315 OA
BRANCH  36  37
HETATM   37  C21 UNL     1       2.752  51.304 -14.254  1.00  0.00     0.262 C 
HETATM   38  O8  UNL     1       2.783  50.089 -14.393  1.00  0.00    -0.265 OA
BRANCH  37  39
HETATM   39  C22 UNL     1       2.842  52.318 -15.381  1.00  0.00     0.077 C 
HETATM   40  C23 UNL     1       1.821  52.016 -16.474  1.00  0.00     0.020 C 
HETATM   41  C24 UNL     1       4.261  52.318 -15.940  1.00  0.00     0.020 C 
ENDBRANCH  37  39
ENDBRANCH  36  37
ENDBRANCH   4  36
BRANCH   1  42
HETATM   42  O2  UNL     1       0.957  55.315  -8.730  1.00  0.00    -0.313 OA
BRANCH  42  43
HETATM   43  C2  UNL     1       1.056  55.664  -7.420  1.00  0.00     0.255 C 
HETATM   44  C1  UNL     1       0.312  56.940  -7.167  1.00  0.00     0.126 C 
HETATM   45  O1  UNL     1       1.635  55.021  -6.553  1.00  0.00    -0.266 OA
ENDBRANCH  42  43
ENDBRANCH   1  42
TORSDOF 12
ENDMDL
