MODEL 1
REMARK minimizedAffinity -6.89573097
REMARK CNNscore 0.22390382
REMARK CNNaffinity 5.54585648
REMARK  5 active torsions:
REMARK  status: ('A' for Active; 'I' for Inactive)
REMARK    1  A    between atoms: C2_2  and  C3_3 
REMARK    2  A    between atoms: C6_6  and  C7_7 
REMARK    3  A    between atoms: C7_7  and  O1_8 
REMARK    4  A    between atoms: C7_7  and  C8_9 
REMARK    5  A    between atoms: C26_32  and  O6_33 
ROOT
HETATM    1  C3  UNL     1     -12.410  -9.904  13.335  1.00  0.00     0.008 C 
HETATM    2  C4  UNL     1     -11.381  -8.935  13.870  1.00  0.00    -0.023 C 
HETATM    3  C5  UNL     1     -11.583  -7.967  14.780  1.00  0.00     0.005 C 
HETATM    4  C6  UNL     1     -12.878  -7.579  15.457  1.00  0.00     0.187 C 
HETATM    5  O2  UNL     1     -13.076  -6.205  15.053  1.00  0.00    -0.308 OA
HETATM    6  C12 UNL     1     -14.342  -5.705  15.165  1.00  0.00     0.276 C 
HETATM    7  O3  UNL     1     -15.288  -6.351  15.608  1.00  0.00    -0.264 OA
HETATM    8  C13 UNL     1     -14.396  -4.219  14.663  1.00  0.00     0.095 C 
HETATM    9  C14 UNL     1     -13.084  -3.556  15.181  1.00  0.00     0.036 C 
HETATM   10  C15 UNL     1     -15.570  -3.546  15.356  1.00  0.00     0.003 C 
HETATM   11  C16 UNL     1     -15.970  -2.277  15.192  1.00  0.00     0.072 C 
HETATM   12  C17 UNL     1     -15.357  -1.269  14.305  1.00  0.00     0.245 C 
HETATM   13  O4  UNL     1     -15.476  -0.081  14.590  1.00  0.00    -0.268 OA
HETATM   14  N1  UNL     1     -14.750  -1.640  13.144  1.00  0.00    -0.320 N 
HETATM   15  C18 UNL     1     -14.571  -2.862  12.529  1.00  0.00     0.098 C 
HETATM   16  C19 UNL     1     -14.503  -4.060  13.139  1.00  0.00     0.045 C 
HETATM   17  C20 UNL     1     -14.526  -5.282  12.273  1.00  0.00     0.194 C 
HETATM   18  O5  UNL     1     -14.857  -6.366  12.729  1.00  0.00    -0.287 OA
HETATM   19  C21 UNL     1     -14.215  -5.191  10.829  1.00  0.00     0.046 A 
HETATM   20  C22 UNL     1     -14.182  -3.930  10.240  1.00  0.00     0.032 A 
HETATM   21  C23 UNL     1     -13.970  -3.777   8.860  1.00  0.00     0.026 A 
HETATM   22  C24 UNL     1     -13.821  -4.893   8.034  1.00  0.00    -0.027 A 
HETATM   23  C25 UNL     1     -13.649  -4.720   6.552  1.00  0.00     0.051 C 
HETATM   24  C26 UNL     1     -13.898  -6.160   8.613  1.00  0.00     0.086 A 
HETATM   25  C27 UNL     1     -14.047  -6.322  10.006  1.00  0.00     0.059 A 
HETATM   26  C28 UNL     1     -14.017  -7.724  10.491  1.00  0.00     0.163 C 
HETATM   27  O7  UNL     1     -14.745  -8.529   9.910  1.00  0.00    -0.292 OA
HETATM   28  C29 UNL     1     -12.940  -8.146  11.472  1.00  0.00     0.084 C 
HETATM   29  C30 UNL     1     -13.445  -9.277  12.374  1.00  0.00     0.016 C 
HETATM   30  C31 UNL     1     -14.400  -2.726  11.049  1.00  0.00     0.210 C 
HETATM   31  O8  UNL     1     -14.417  -1.613  10.529  1.00  0.00    -0.285 OA
HETATM   32  H24 UNL     1     -14.596  -0.833  12.536  1.00  0.00     0.169 HD
ENDROOT
BRANCH   4  33
HETATM   33  C7  UNL     1     -12.766  -7.698  17.014  1.00  0.00     0.174 C 
BRANCH  33  34
HETATM   34  O1  UNL     1     -14.019  -7.513  17.683  1.00  0.00    -0.389 OA
HETATM   35  H11 UNL     1     -14.740  -7.681  17.042  1.00  0.00     0.210 HD
ENDBRANCH  33  34
BRANCH  33  36
HETATM   36  C8  UNL     1     -12.270  -9.053  17.444  1.00  0.00     0.009 C 
HETATM   37  C9  UNL     1     -11.048  -9.400  17.897  1.00  0.00    -0.089 C 
HETATM   38  C10 UNL     1     -10.745 -10.834  18.249  1.00  0.00     0.042 C 
HETATM   39  C11 UNL     1      -9.895  -8.457  18.114  1.00  0.00     0.042 C 
ENDBRANCH  33  36
ENDBRANCH   4  33
BRANCH   1  40
HETATM   40  C2  UNL     1     -11.747 -11.175  12.752  1.00  0.00     0.004 C 
HETATM   41  C1  UNL     1     -12.006 -12.471  13.509  1.00  0.00     0.006 C 
ENDBRANCH   1  40
BRANCH  24  42
HETATM   42  O6  UNL     1     -13.831  -7.238   7.764  1.00  0.00    -0.359 OA
HETATM   43  H29 UNL     1     -14.239  -8.016   8.210  1.00  0.00     0.217 HD
ENDBRANCH  24  42
TORSDOF 5
ENDMDL
