MODEL 1
REMARK minimizedAffinity -9.60656643
REMARK CNNscore 0.549920321
REMARK CNNaffinity 7.5852294
REMARK  12 active torsions:
REMARK  status: ('A' for Active; 'I' for Inactive)
REMARK    1  A    between atoms: C2_2  and  C3_3 
REMARK    2  A    between atoms: C2_2  and  C9_10 
REMARK    3  A    between atoms: C3_3  and  C4_4 
REMARK    4  A    between atoms: C5_5  and  C6_6 
REMARK    5  A    between atoms: C6_6  and  O1_9 
REMARK    6  A    between atoms: C27_29  and  O3_30 
REMARK    7  A    between atoms: O3_30  and  C28_31 
REMARK    8  A    between atoms: C29_33  and  C30_34 
REMARK    9  A    between atoms: C30_34  and  O5_35 
REMARK   10  A    between atoms: C31_36  and  O6_37 
REMARK   11  A    between atoms: C32_38  and  O7_39 
REMARK   12  A    between atoms: C33_40  and  O8_41 
ROOT
HETATM    1  C9  UNL     1      -1.132  49.926 -21.075  1.00  0.00    -0.002 C 
HETATM    2  C10 UNL     1      -0.973  48.973 -19.856  1.00  0.00     0.006 C 
HETATM    3  C11 UNL     1      -2.380  48.400 -19.542  1.00  0.00     0.011 C 
HETATM    4  C12 UNL     1      -3.210  48.718 -20.798  1.00  0.00    -0.029 C 
HETATM    5  C13 UNL     1      -2.813  47.618 -21.840  1.00  0.00     0.016 C 
HETATM    6  C14 UNL     1      -4.760  48.775 -20.611  1.00  0.00     0.028 C 
HETATM    7  C15 UNL     1      -5.363  47.466 -20.145  1.00  0.00    -0.021 C 
HETATM    8  C16 UNL     1      -6.426  46.921 -20.766  1.00  0.00     0.008 C 
HETATM    9  C17 UNL     1      -7.019  47.537 -22.025  1.00  0.00     0.092 C 
HETATM   10  O2  UNL     1      -7.804  48.656 -21.548  1.00  0.00    -0.374 OA
HETATM   11  C18 UNL     1      -6.942  49.804 -21.471  1.00  0.00     0.179 C 
HETATM   12  C19 UNL     1      -5.512  49.370 -21.890  1.00  0.00    -0.004 C 
HETATM   13  C20 UNL     1      -4.780  50.607 -22.475  1.00  0.00     0.014 C 
HETATM   14  C21 UNL     1      -3.241  50.570 -22.506  1.00  0.00     0.011 C 
HETATM   15  C22 UNL     1      -2.668  50.159 -21.139  1.00  0.00    -0.032 C 
HETATM   16  C23 UNL     1      -3.063  51.249 -20.100  1.00  0.00     0.016 C 
HETATM   17  C24 UNL     1      -5.874  48.193 -22.843  1.00  0.00     0.036 C 
HETATM   18  C25 UNL     1      -6.261  48.510 -24.295  1.00  0.00     0.011 C 
HETATM   19  C26 UNL     1      -7.754  48.596 -24.527  1.00  0.00     0.033 C 
HETATM   20  C27 UNL     1      -8.500  47.310 -24.135  1.00  0.00     0.136 C 
HETATM   21  C34 UNL     1      -7.931  46.578 -22.858  1.00  0.00     0.014 C 
HETATM   22  C35 UNL     1      -9.106  46.033 -22.000  1.00  0.00     0.021 C 
HETATM   23  C36 UNL     1      -7.116  45.346 -23.331  1.00  0.00     0.021 C 
ENDROOT
BRANCH  20  24
HETATM   24  O3  UNL     1      -9.902  47.585 -23.968  1.00  0.00    -0.352 OA
BRANCH  24  25
HETATM   25  C28 UNL     1     -10.609  47.824 -25.188  1.00  0.00     0.292 C 
HETATM   26  O4  UNL     1     -11.248  46.624 -25.623  1.00  0.00    -0.348 OA
HETATM   27  C29 UNL     1     -10.453  45.747 -26.433  1.00  0.00     0.179 C 
HETATM   28  C31 UNL     1     -10.042  46.445 -27.750  1.00  0.00     0.180 C 
HETATM   29  C32 UNL     1     -10.021  47.980 -27.632  1.00  0.00     0.183 C 
HETATM   30  C33 UNL     1      -9.627  48.423 -26.228  1.00  0.00     0.204 C 
BRANCH  27  31
HETATM   31  C30 UNL     1      -9.236  45.165 -25.687  1.00  0.00     0.198 C 
BRANCH  31  32
HETATM   32  O5  UNL     1      -9.175  43.748 -25.820  1.00  0.00    -0.398 OA
HETATM   33  H46 UNL     1      -9.675  43.376 -25.064  1.00  0.00     0.209 HD
ENDBRANCH  31  32
ENDBRANCH  27  31
BRANCH  28  34
HETATM   34  O6  UNL     1     -10.987  46.112 -28.788  1.00  0.00    -0.390 OA
HETATM   35  H48 UNL     1     -10.628  46.445 -29.631  1.00  0.00     0.210 HD
ENDBRANCH  28  34
BRANCH  29  36
HETATM   36  O7  UNL     1     -11.312  48.549 -27.946  1.00  0.00    -0.390 OA
HETATM   37  H50 UNL     1     -11.892  47.785 -28.166  1.00  0.00     0.210 HD
ENDBRANCH  29  36
BRANCH  30  38
HETATM   38  O8  UNL     1      -9.640  49.864 -26.178  1.00  0.00    -0.388 OA
HETATM   39  H52 UNL     1     -10.512  50.115 -26.542  1.00  0.00     0.210 HD
ENDBRANCH  30  38
ENDBRANCH  24  25
ENDBRANCH  20  24
BRANCH   1  40
HETATM   40  C2  UNL     1      -0.137  51.117 -21.212  1.00  0.00    -0.010 C 
HETATM   41  C1  UNL     1       0.029  51.788 -19.832  1.00  0.00     0.010 C 
BRANCH  40  42
HETATM   42  C3  UNL     1      -0.336  52.218 -22.287  1.00  0.00     0.031 C 
BRANCH  42  43
HETATM   43  C4  UNL     1      -0.172  51.833 -23.732  1.00  0.00    -0.027 C 
HETATM   44  C5  UNL     1       0.775  52.325 -24.546  1.00  0.00     0.006 C 
BRANCH  44  45
HETATM   45  C6  UNL     1       0.987  52.000 -26.007  1.00  0.00     0.068 C 
HETATM   46  C7  UNL     1       2.382  51.480 -26.371  1.00  0.00     0.050 C 
HETATM   47  C8  UNL     1      -0.064  50.987 -26.469  1.00  0.00     0.050 C 
BRANCH  45  48
HETATM   48  O1  UNL     1       0.795  53.204 -26.748  1.00  0.00    -0.387 OA
HETATM   49  H15 UNL     1       0.001  53.645 -26.405  1.00  0.00     0.211 HD
ENDBRANCH  45  48
ENDBRANCH  44  45
ENDBRANCH  42  43
ENDBRANCH  40  42
ENDBRANCH   1  40
TORSDOF 12
ENDMDL
