MODEL 1
REMARK minimizedAffinity -8.32593346
REMARK  8 active torsions:
REMARK  status: ('A' for Active; 'I' for Inactive)
REMARK    1  A    between atoms: C4_4  and  C5_5 
REMARK    2  A    between atoms: C5_5  and  C6_6 
REMARK    3  A    between atoms: C6_6  and  C7_7 
REMARK    4  A    between atoms: C7_7  and  C9_9 
REMARK    5  A    between atoms: C21_21  and  C22_22 
REMARK    6  A    between atoms: C22_22  and  C23_23 
REMARK    7  A    between atoms: C23_23  and  C24_24 
REMARK    8  A    between atoms: C24_24  and  O1_25 
ROOT
HETATM    1  C9  UNL     1      -2.944  49.749 -22.951  1.00  0.00    -0.002 C 
HETATM    2  C10 UNL     1      -2.242  48.494 -22.355  1.00  0.00     0.006 C 
HETATM    3  C11 UNL     1      -3.351  47.431 -22.125  1.00  0.00     0.011 C 
HETATM    4  C12 UNL     1      -4.676  48.203 -22.309  1.00  0.00    -0.032 C 
HETATM    5  C13 UNL     1      -4.919  48.919 -20.939  1.00  0.00     0.016 C 
HETATM    6  C14 UNL     1      -5.906  47.361 -22.747  1.00  0.00     0.003 C 
HETATM    7  C15 UNL     1      -6.292  46.205 -21.798  1.00  0.00     0.010 C 
HETATM    8  C16 UNL     1      -7.614  45.534 -22.193  1.00  0.00     0.035 C 
HETATM    9  C17 UNL     1      -7.904  45.716 -23.665  1.00  0.00    -0.073 C 
HETATM   10  C18 UNL     1      -7.933  44.692 -24.559  1.00  0.00    -0.085 C 
HETATM   11  C19 UNL     1      -8.259  44.853 -26.028  1.00  0.00     0.043 C 
HETATM   12  C20 UNL     1      -7.642  43.249 -24.216  1.00  0.00     0.043 C 
HETATM   13  C21 UNL     1      -8.091  47.204 -24.063  1.00  0.00     0.023 C 
HETATM   14  C25 UNL     1      -7.171  48.206 -23.200  1.00  0.00    -0.032 C 
HETATM   15  C26 UNL     1      -7.953  48.787 -21.992  1.00  0.00     0.016 C 
HETATM   16  C27 UNL     1      -6.750  49.437 -24.092  1.00  0.00     0.011 C 
HETATM   17  C28 UNL     1      -5.432  50.158 -23.723  1.00  0.00     0.011 C 
HETATM   18  C29 UNL     1      -4.282  49.166 -23.495  1.00  0.00    -0.032 C 
HETATM   19  C30 UNL     1      -4.018  48.448 -24.856  1.00  0.00     0.016 C 
ENDROOT
BRANCH   1  20
HETATM   20  C7  UNL     1      -2.083  50.659 -23.883  1.00  0.00    -0.014 C 
HETATM   21  C8  UNL     1      -2.596  52.095 -24.035  1.00  0.00     0.010 C 
BRANCH  20  22
HETATM   22  C6  UNL     1      -1.958  49.978 -25.278  1.00  0.00     0.008 C 
BRANCH  22  23
HETATM   23  C5  UNL     1      -1.236  50.790 -26.363  1.00  0.00     0.028 C 
BRANCH  23  24
HETATM   24  C4  UNL     1       0.255  50.894 -26.205  1.00  0.00    -0.025 C 
HETATM   25  C2  UNL     1       1.124  51.493 -27.044  1.00  0.00    -0.091 C 
HETATM   26  C1  UNL     1       2.600  51.498 -26.747  1.00  0.00     0.042 C 
HETATM   27  C3  UNL     1       0.741  52.205 -28.311  1.00  0.00     0.042 C 
ENDBRANCH  23  24
ENDBRANCH  22  23
ENDBRANCH  20  22
ENDBRANCH   1  20
BRANCH  13  28
HETATM   28  C22 UNL     1      -9.610  47.510 -24.133  1.00  0.00     0.012 C 
BRANCH  28  29
HETATM   29  C23 UNL     1     -10.156  47.675 -25.556  1.00  0.00     0.027 C 
BRANCH  29  30
HETATM   30  C24 UNL     1      -9.371  48.710 -26.355  1.00  0.00     0.164 C 
BRANCH  30  31
HETATM   31  O1  UNL     1      -9.682  50.016 -25.896  1.00  0.00    -0.401 OA
HETATM   32  H42 UNL     1      -9.159  50.639 -26.427  1.00  0.00     0.209 HD
ENDBRANCH  30  31
ENDBRANCH  29  30
ENDBRANCH  28  29
ENDBRANCH  13  28
TORSDOF 8
ENDMDL
