MODEL 1
REMARK minimizedAffinity -8.3214035
REMARK CNNscore 0.529301643
REMARK CNNaffinity 7.16920328
REMARK  14 active torsions:
REMARK  status: ('A' for Active; 'I' for Inactive)
REMARK    1  A    between atoms: C19_20  and  O2_21 
REMARK    2  A    between atoms: C19_20  and  C20_22 
REMARK    3  A    between atoms: C20_22  and  C21_24 
REMARK    4  A    between atoms: C21_24  and  O4_25 
REMARK    5  A    between atoms: O4_25  and  C22_26 
REMARK    6  A    between atoms: C22_26  and  C23_28 
REMARK    7  A    between atoms: C23_28  and  C24_29 
REMARK    8  A    between atoms: C24_29  and  C25_30 
REMARK       I    between atoms: C25_30  and  N1_32 
REMARK    9  A    between atoms: N1_32  and  C26_33 
REMARK   10  A    between atoms: C26_33  and  C27_34 
REMARK   11  A    between atoms: C27_34  and  C28_35 
REMARK   12  A    between atoms: C27_34  and  C30_39 
REMARK   13  A    between atoms: C28_35  and  C29_36 
REMARK   14  A    between atoms: C29_36  and  O8_38 
ROOT
HETATM    1  C20 UNL     1      -6.949   5.638  14.948  1.00  0.00     0.185 C 
HETATM    2  O3  UNL     1      -7.185   4.469  14.616  1.00  0.00    -0.292 OA
ENDROOT
BRANCH   1   3
HETATM    3  C19 UNL     1      -6.011   6.490  14.054  1.00  0.00     0.128 C 
HETATM    4  C14 UNL     1      -4.469   6.255  14.131  1.00  0.00    -0.002 C 
HETATM    5  C13 UNL     1      -3.949   4.953  13.499  1.00  0.00     0.013 C 
HETATM    6  C15 UNL     1      -3.929   6.369  15.578  1.00  0.00     0.019 C 
HETATM    7  C16 UNL     1      -3.991   7.429  13.232  1.00  0.00     0.002 C 
HETATM    8  C12 UNL     1      -2.419   4.973  13.327  1.00  0.00     0.007 C 
HETATM    9  C11 UNL     1      -1.906   6.207  12.536  1.00  0.00     0.002 C 
HETATM   10  C2  UNL     1      -0.343   6.232  12.328  1.00  0.00    -0.016 C 
HETATM   11  C10 UNL     1      -2.464   7.542  13.123  1.00  0.00    -0.004 C 
HETATM   12  C1  UNL     1       0.420   6.199  13.671  1.00  0.00     0.020 C 
HETATM   13  C3  UNL     1       0.059   4.981  11.491  1.00  0.00     0.022 C 
HETATM   14  C7  UNL     1       0.050   7.515  11.582  1.00  0.00    -0.068 C 
HETATM   15  C4  UNL     1       1.450   5.072  10.877  1.00  0.00     0.084 C 
HETATM   16  C5  UNL     1       1.563   6.320  10.040  1.00  0.00     0.149 C 
HETATM   17  O1  UNL     1       2.234   6.367   9.015  1.00  0.00    -0.293 OA
HETATM   18  C6  UNL     1       0.887   7.542  10.526  1.00  0.00     0.053 C 
HETATM   19  C8  UNL     1      -0.537   8.807  12.098  1.00  0.00     0.035 C 
HETATM   20  C9  UNL     1      -2.052   8.724  12.236  1.00  0.00     0.010 C 
HETATM   21  C17 UNL     1      -4.785   8.620  13.764  1.00  0.00     0.009 C 
HETATM   22  C18 UNL     1      -6.150   8.025  14.181  1.00  0.00     0.047 C 
BRANCH   3  23
HETATM   23  O2  UNL     1      -6.422   6.184  12.693  1.00  0.00    -0.381 OA
HETATM   24  H27 UNL     1      -7.301   5.749  12.750  1.00  0.00     0.211 HD
ENDBRANCH   3  23
ENDBRANCH   1   3
BRANCH   1  25
HETATM   25  C21 UNL     1      -7.575   6.187  16.225  1.00  0.00     0.260 C 
BRANCH  25  26
HETATM   26  O4  UNL     1      -8.991   6.310  16.246  1.00  0.00    -0.314 OA
BRANCH  26  27
HETATM   27  C22 UNL     1      -9.473   7.411  15.601  1.00  0.00     0.259 C 
HETATM   28  O5  UNL     1      -9.191   8.562  15.893  1.00  0.00    -0.265 OA
BRANCH  27  29
HETATM   29  C23 UNL     1     -10.361   7.008  14.452  1.00  0.00     0.120 C 
BRANCH  29  30
HETATM   30  C24 UNL     1     -10.702   8.234  13.619  1.00  0.00     0.112 C 
BRANCH  30  31
HETATM   31  C25 UNL     1     -12.197   8.374  13.409  1.00  0.00     0.218 C 
HETATM   32  O6  UNL     1     -12.688   8.872  12.404  1.00  0.00    -0.274 OA
HETATM   33  N1  UNL     1     -12.936   7.944  14.490  1.00  0.00    -0.360 N 
HETATM   34  H34 UNL     1     -12.471   7.375  15.188  1.00  0.00     0.162 HD
BRANCH  33  35
HETATM   35  C26 UNL     1     -14.383   7.809  14.411  1.00  0.00     0.132 C 
BRANCH  35  36
HETATM   36  C27 UNL     1     -14.825   6.464  13.778  1.00  0.00     0.046 C 
BRANCH  36  37
HETATM   37  C28 UNL     1     -15.475   6.668  12.400  1.00  0.00     0.120 C 
BRANCH  37  38
HETATM   38  C29 UNL     1     -16.191   7.986  12.279  1.00  0.00     0.140 C 
HETATM   39  O7  UNL     1     -17.210   8.340  12.844  1.00  0.00    -0.650 OA
BRANCH  38  40
HETATM   40  O8  UNL     1     -15.558   8.822  11.430  1.00  0.00    -0.776 OA
HETATM   41  H40 UNL     1     -16.102   9.636  11.453  1.00  0.00     0.167 HD
ENDBRANCH  38  40
ENDBRANCH  37  38
ENDBRANCH  36  37
BRANCH  36  42
HETATM   42  C30 UNL     1     -15.780   5.703  14.697  1.00  0.00    -0.052 A 
HETATM   43  C31 UNL     1     -16.080   6.151  15.994  1.00  0.00     0.007 A 
HETATM   44  C32 UNL     1     -16.935   5.416  16.818  1.00  0.00     0.001 A 
HETATM   45  C33 UNL     1     -17.505   4.230  16.358  1.00  0.00     0.000 A 
HETATM   46  C34 UNL     1     -17.223   3.781  15.071  1.00  0.00     0.001 A 
HETATM   47  C35 UNL     1     -16.365   4.510  14.245  1.00  0.00     0.007 A 
ENDBRANCH  36  42
ENDBRANCH  35  36
ENDBRANCH  33  35
ENDBRANCH  30  31
ENDBRANCH  29  30
ENDBRANCH  27  29
ENDBRANCH  26  27
ENDBRANCH  25  26
ENDBRANCH   1  25
TORSDOF 14
ENDMDL
