MODEL 1
REMARK minimizedAffinity -7.84801435
REMARK CNNscore 0.641323566
REMARK CNNaffinity 6.98236847
REMARK  12 active torsions:
REMARK  status: ('A' for Active; 'I' for Inactive)
REMARK    1  A    between atoms: C2_2  and  O2_4 
REMARK    2  A    between atoms: O2_4  and  C3_5 
REMARK    3  A    between atoms: C20_23  and  C21_24 
REMARK    4  A    between atoms: C21_24  and  C23_26 
REMARK    5  A    between atoms: C23_26  and  C24_27 
REMARK    6  A    between atoms: C24_27  and  C25_28 
REMARK    7  A    between atoms: C25_28  and  O4_29 
REMARK    8  A    between atoms: C25_28  and  C26_30 
REMARK    9  A    between atoms: C26_30  and  O5_32 
REMARK   10  A    between atoms: C26_30  and  C28_33 
REMARK   11  A    between atoms: C28_33  and  O6_34 
REMARK   12  A    between atoms: C32_38  and  O7_39 
ROOT
HETATM    1  C3  UNL     1       3.824   7.032  11.247  1.00  0.00     0.140 C 
HETATM    2  C4  UNL     1       3.191   8.055  12.209  1.00  0.00     0.034 C 
HETATM    3  C5  UNL     1       2.007   8.773  11.577  1.00  0.00     0.017 C 
HETATM    4  C6  UNL     1       0.814   7.823  11.250  1.00  0.00    -0.013 C 
HETATM    5  C7  UNL     1       0.057   8.444  10.045  1.00  0.00     0.021 C 
HETATM    6  C8  UNL     1      -0.260   7.638  12.362  1.00  0.00    -0.032 C 
HETATM    7  C9  UNL     1      -1.061   6.533  12.383  1.00  0.00     0.002 C 
HETATM    8  C10 UNL     1      -0.930   5.480  11.312  1.00  0.00     0.157 C 
HETATM    9  O3  UNL     1      -1.793   4.618  11.158  1.00  0.00    -0.293 OA
HETATM   10  C11 UNL     1       0.284   5.492  10.403  1.00  0.00     0.090 C 
HETATM   11  C12 UNL     1       1.380   6.376  10.994  1.00  0.00     0.015 C 
HETATM   12  C13 UNL     1       2.787   6.308  10.308  1.00  0.00    -0.016 C 
HETATM   13  C14 UNL     1       3.245   4.831  10.178  1.00  0.00     0.018 C 
HETATM   14  C15 UNL     1       2.791   6.877   8.875  1.00  0.00     0.018 C 
HETATM   15  C16 UNL     1      -2.043   6.288  13.524  1.00  0.00    -0.005 C 
HETATM   16  C17 UNL     1      -1.195   5.510  14.582  1.00  0.00     0.021 C 
HETATM   17  C18 UNL     1      -3.337   5.479  13.311  1.00  0.00     0.015 C 
HETATM   18  C19 UNL     1      -4.263   5.886  14.476  1.00  0.00     0.007 C 
HETATM   19  C20 UNL     1      -3.660   7.174  15.108  1.00  0.00    -0.002 C 
HETATM   20  C29 UNL     1      -2.655   7.660  14.016  1.00  0.00    -0.026 C 
HETATM   21  C30 UNL     1      -3.414   8.403  12.879  1.00  0.00     0.016 C 
HETATM   22  C31 UNL     1      -1.492   8.540  14.504  1.00  0.00     0.047 C 
HETATM   23  C32 UNL     1      -0.389   8.720  13.434  1.00  0.00     0.149 C 
ENDROOT
BRANCH  19  24
HETATM   24  C21 UNL     1      -4.730   8.090  15.773  1.00  0.00    -0.014 C 
HETATM   25  C22 UNL     1      -5.978   8.412  14.937  1.00  0.00     0.010 C 
BRANCH  24  26
HETATM   26  C23 UNL     1      -4.182   9.417  16.346  1.00  0.00     0.007 C 
BRANCH  26  27
HETATM   27  C24 UNL     1      -4.393  10.699  15.523  1.00  0.00     0.035 C 
BRANCH  27  28
HETATM   28  C25 UNL     1      -3.331  11.790  15.745  1.00  0.00     0.154 C 
BRANCH  28  29
HETATM   29  O4  UNL     1      -2.449  11.819  14.623  1.00  0.00    -0.392 OA
HETATM   30  H38 UNL     1      -1.575  12.114  14.933  1.00  0.00     0.210 HD
ENDBRANCH  28  29
BRANCH  28  31
HETATM   31  C26 UNL     1      -3.928  13.210  16.000  1.00  0.00     0.101 C 
HETATM   32  C27 UNL     1      -4.876  13.178  17.208  1.00  0.00     0.051 C 
BRANCH  31  33
HETATM   33  O5  UNL     1      -4.698  13.628  14.854  1.00  0.00    -0.385 OA
HETATM   34  H42 UNL     1      -5.441  13.008  14.749  1.00  0.00     0.210 HD
ENDBRANCH  31  33
BRANCH  31  35
HETATM   35  C28 UNL     1      -2.852  14.294  16.240  1.00  0.00     0.204 C 
BRANCH  35  36
HETATM   36  O6  UNL     1      -1.575  13.702  16.488  1.00  0.00    -0.398 OA
HETATM   37  H45 UNL     1      -1.518  12.967  15.845  1.00  0.00     0.209 HD
ENDBRANCH  35  36
ENDBRANCH  31  35
ENDBRANCH  28  31
ENDBRANCH  27  28
ENDBRANCH  26  27
ENDBRANCH  24  26
ENDBRANCH  19  24
BRANCH  23  38
HETATM   38  O7  UNL     1      -0.603   9.979  12.797  1.00  0.00    -0.391 OA
HETATM   39  H52 UNL     1      -1.400   9.908  12.251  1.00  0.00     0.210 HD
ENDBRANCH  23  38
BRANCH   1  40
HETATM   40  O2  UNL     1       4.811   7.738  10.465  1.00  0.00    -0.316 OA
BRANCH  40  41
HETATM   41  C2  UNL     1       6.113   7.616  10.841  1.00  0.00     0.255 C 
HETATM   42  C1  UNL     1       6.349   6.250  11.409  1.00  0.00     0.126 C 
HETATM   43  O1  UNL     1       6.973   8.478  10.741  1.00  0.00    -0.266 OA
ENDBRANCH  40  41
ENDBRANCH   1  40
TORSDOF 12
ENDMDL
