MODEL 1
REMARK minimizedAffinity -7.88515854
REMARK CNNscore 0.474507332
REMARK CNNaffinity 5.41396189
REMARK  2 active torsions:
REMARK  status: ('A' for Active; 'I' for Inactive)
REMARK    1  A    between atoms: C13_16  and  C14_17 
REMARK    2  A    between atoms: C14_17  and  O4_19 
ROOT
HETATM    1  C1  UNL     1      16.565  -1.001   5.367  1.00  0.00     0.046 C 
HETATM    2  C2  UNL     1      15.676  -1.991   4.667  1.00  0.00    -0.054 C 
HETATM    3  C3  UNL     1      15.088  -1.704   3.498  1.00  0.00     0.011 C 
HETATM    4  C4  UNL     1      14.138  -2.638   2.792  1.00  0.00     0.159 C 
HETATM    5  O1  UNL     1      14.391  -2.411   1.393  1.00  0.00    -0.372 OA
HETATM    6  C5  UNL     1      15.199  -3.375   0.732  1.00  0.00     0.162 C 
HETATM    7  C6  UNL     1      16.550  -3.624   1.449  1.00  0.00     0.068 C 
HETATM    8  C7  UNL     1      16.351  -4.984   2.133  1.00  0.00     0.147 C 
HETATM    9  O2  UNL     1      17.012  -5.174   3.386  1.00  0.00    -0.312 OA
HETATM   10  C8  UNL     1      17.726  -6.333   3.455  1.00  0.00     0.283 C 
HETATM   11  O3  UNL     1      18.235  -6.924   2.510  1.00  0.00    -0.260 OA
HETATM   12  C9  UNL     1      17.561  -6.999   4.760  1.00  0.00     0.082 C 
HETATM   13  C10 UNL     1      17.669  -6.522   6.006  1.00  0.00     0.006 C 
HETATM   14  C11 UNL     1      18.132  -5.225   6.425  1.00  0.00    -0.001 C 
HETATM   15  C12 UNL     1      17.928  -4.673   7.636  1.00  0.00     0.007 C 
HETATM   16  C13 UNL     1      17.047  -5.112   8.794  1.00  0.00     0.172 C 
HETATM   17  O5  UNL     1      15.995  -5.967   8.333  1.00  0.00    -0.379 OA
HETATM   18  C16 UNL     1      14.690  -5.413   8.529  1.00  0.00     0.173 C 
HETATM   19  C17 UNL     1      13.650  -6.291   7.818  1.00  0.00     0.060 C 
HETATM   20  C18 UNL     1      12.247  -5.703   7.803  1.00  0.00    -0.076 C 
HETATM   21  C19 UNL     1      11.646  -5.435   9.158  1.00  0.00     0.043 C 
HETATM   22  C20 UNL     1      11.533  -5.412   6.691  1.00  0.00     0.084 C 
HETATM   23  C21 UNL     1      11.981  -5.673   5.305  1.00  0.00     0.283 C 
HETATM   24  O6  UNL     1      12.411  -6.744   4.913  1.00  0.00    -0.260 OA
HETATM   25  O7  UNL     1      11.874  -4.526   4.586  1.00  0.00    -0.317 OA
HETATM   26  C22 UNL     1      12.490  -4.556   3.280  1.00  0.00     0.195 C 
HETATM   27  C23 UNL     1      14.037  -4.178   3.263  1.00  0.00     0.053 C 
HETATM   28  C24 UNL     1      14.634  -4.338   4.668  1.00  0.00     0.170 A 
HETATM   29  O8  UNL     1      14.025  -3.537   5.700  1.00  0.00    -0.370 OA
HETATM   30  C25 UNL     1      15.375  -3.226   5.375  1.00  0.00     0.180 A 
HETATM   31  C26 UNL     1      14.792  -5.173   2.223  1.00  0.00     0.034 C 
HETATM   32  C27 UNL     1      14.507  -6.671   2.437  1.00  0.00     0.022 C 
HETATM   33  C28 UNL     1      14.483  -4.676   0.840  1.00  0.00     0.119 A 
HETATM   34  C29 UNL     1      14.138  -5.517  -0.369  1.00  0.00     0.210 A 
HETATM   35  O9  UNL     1      13.145  -4.759   0.353  1.00  0.00    -0.371 OA
ENDROOT
BRANCH  16  36
HETATM   36  C14 UNL     1      17.825  -5.792   9.949  1.00  0.00     0.146 C 
HETATM   37  C15 UNL     1      18.976  -4.967  10.513  1.00  0.00     0.042 C 
BRANCH  36  38
HETATM   38  O4  UNL     1      16.940  -6.162  11.013  1.00  0.00    -0.393 OA
HETATM   39  H19 UNL     1      16.744  -5.355  11.519  1.00  0.00     0.210 HD
ENDBRANCH  36  38
ENDBRANCH  16  36
TORSDOF 2
ENDMDL
