MODEL 1
REMARK minimizedAffinity -9.3900404
REMARK  12 active torsions:
REMARK  status: ('A' for Active; 'I' for Inactive)
REMARK    1  A    between atoms: C4_4  and  C5_5 
REMARK    2  A    between atoms: C5_5  and  C6_6 
REMARK    3  A    between atoms: C6_6  and  C7_7 
REMARK    4  A    between atoms: C7_7  and  C9_9 
REMARK    5  A    between atoms: C17_17  and  C18_18 
REMARK    6  A    between atoms: C18_18  and  O1_20 
REMARK    7  A    between atoms: C18_18  and  C20_21 
REMARK    8  A    between atoms: C20_21  and  O2_22 
REMARK    9  A    between atoms: C21_23  and  C22_24 
REMARK   10  A    between atoms: C22_24  and  C23_25 
REMARK   11  A    between atoms: C23_25  and  C24_26 
REMARK   12  A    between atoms: C24_26  and  O4_28 
ROOT
HETATM    1  C9  UNL     1       0.720   6.866  12.969  1.00  0.00    -0.002 C 
HETATM    2  C10 UNL     1       0.393   7.976  13.991  1.00  0.00     0.006 C 
HETATM    3  C11 UNL     1      -1.122   7.960  14.164  1.00  0.00     0.011 C 
HETATM    4  C12 UNL     1      -1.673   7.613  12.763  1.00  0.00    -0.032 C 
HETATM    5  C13 UNL     1      -1.551   8.872  11.860  1.00  0.00     0.016 C 
HETATM    6  C14 UNL     1      -3.197   7.183  12.774  1.00  0.00     0.004 C 
HETATM    7  C15 UNL     1      -4.099   8.295  13.340  1.00  0.00     0.007 C 
HETATM    8  C16 UNL     1      -5.473   7.902  13.867  1.00  0.00     0.009 C 
HETATM    9  C17 UNL     1      -5.995   6.520  13.440  1.00  0.00     0.031 C 
HETATM   10  C21 UNL     1      -4.919   5.409  13.679  1.00  0.00    -0.025 A 
HETATM   11  C25 UNL     1      -3.885   5.595  14.791  1.00  0.00     0.021 A 
HETATM   12  C26 UNL     1      -3.448   5.796  13.362  1.00  0.00    -0.027 A 
HETATM   13  C27 UNL     1      -2.531   4.748  12.759  1.00  0.00     0.011 C 
HETATM   14  C28 UNL     1      -1.077   5.118  12.967  1.00  0.00     0.011 C 
HETATM   15  C29 UNL     1      -0.671   6.475  12.311  1.00  0.00    -0.032 C 
HETATM   16  C30 UNL     1      -0.677   6.267  10.788  1.00  0.00     0.016 C 
ENDROOT
BRANCH   1  17
HETATM   17  C7  UNL     1       2.030   7.129  12.160  1.00  0.00    -0.014 C 
HETATM   18  C8  UNL     1       3.138   7.729  13.037  1.00  0.00     0.010 C 
BRANCH  17  19
HETATM   19  C6  UNL     1       2.554   5.973  11.282  1.00  0.00     0.008 C 
BRANCH  19  20
HETATM   20  C5  UNL     1       3.425   6.453  10.112  1.00  0.00     0.028 C 
BRANCH  20  21
HETATM   21  C4  UNL     1       2.686   6.345   8.804  1.00  0.00    -0.025 C 
HETATM   22  C2  UNL     1       2.525   7.311   7.879  1.00  0.00    -0.091 C 
HETATM   23  C1  UNL     1       3.025   8.724   8.014  1.00  0.00     0.042 C 
HETATM   24  C3  UNL     1       1.785   7.033   6.597  1.00  0.00     0.042 C 
ENDBRANCH  20  21
ENDBRANCH  19  20
ENDBRANCH  17  19
ENDBRANCH   1  17
BRANCH  10  25
HETATM   25  C22 UNL     1      -5.361   3.994  13.256  1.00  0.00     0.021 C 
BRANCH  25  26
HETATM   26  C23 UNL     1      -5.642   3.820  11.762  1.00  0.00     0.111 C 
BRANCH  26  27
HETATM   27  C24 UNL     1      -5.483   2.383  11.350  1.00  0.00     0.139 C 
HETATM   28  O3  UNL     1      -6.335   1.510  11.349  1.00  0.00    -0.650 OA
BRANCH  27  29
HETATM   29  O4  UNL     1      -4.221   2.103  10.965  1.00  0.00    -0.776 OA
HETATM   30  H41 UNL     1      -4.251   1.151  10.738  1.00  0.00     0.167 HD
ENDBRANCH  27  29
ENDBRANCH  26  27
ENDBRANCH  25  26
ENDBRANCH  10  25
BRANCH   9  31
HETATM   31  C18 UNL     1      -7.436   6.222  14.048  1.00  0.00     0.080 C 
HETATM   32  C19 UNL     1      -8.473   5.653  13.056  1.00  0.00     0.048 C 
BRANCH  31  33
HETATM   33  O1  UNL     1      -8.041   7.425  14.551  1.00  0.00    -0.388 OA
HETATM   34  H33 UNL     1      -8.736   7.117  15.168  1.00  0.00     0.210 HD
ENDBRANCH  31  33
BRANCH  31  35
HETATM   35  C20 UNL     1      -7.323   5.216  15.231  1.00  0.00     0.201 C 
BRANCH  35  36
HETATM   36  O2  UNL     1      -8.435   5.397  16.116  1.00  0.00    -0.398 OA
HETATM   37  H36 UNL     1      -8.244   4.875  16.916  1.00  0.00     0.209 HD
ENDBRANCH  35  36
ENDBRANCH  31  35
ENDBRANCH   9  31
TORSDOF 12
ENDMDL
