MODEL 1
REMARK minimizedAffinity -9.375741
REMARK  10 active torsions:
REMARK  status: ('A' for Active; 'I' for Inactive)
REMARK    1  A    between atoms: C12_14  and  C13_15 
REMARK    2  A    between atoms: C13_15  and  C15_17 
REMARK    3  A    between atoms: C15_17  and  C16_18 
REMARK    4  A    between atoms: C16_18  and  C17_19 
REMARK    5  A    between atoms: C18_20  and  C20_22 
REMARK    6  A    between atoms: C20_22  and  O3_23 
REMARK    7  A    between atoms: C26_29  and  C27_30 
REMARK    8  A    between atoms: C27_30  and  C28_31 
REMARK    9  A    between atoms: C28_31  and  C29_32 
REMARK   10  A    between atoms: C29_32  and  O5_34 
ROOT
HETATM    1  C1  UNL     1       4.050   7.675   9.869  1.00  0.00     0.025 C 
HETATM    2  C2  UNL     1       3.358   6.650  10.380  1.00  0.00     0.015 C 
HETATM    3  C3  UNL     1       3.138   5.416   9.588  1.00  0.00     0.289 C 
HETATM    4  O1  UNL     1       3.691   5.110   8.549  1.00  0.00    -0.260 OA
HETATM    5  O2  UNL     1       2.206   4.670  10.239  1.00  0.00    -0.311 OA
HETATM    6  C4  UNL     1       1.629   5.430  11.317  1.00  0.00     0.142 C 
HETATM    7  C5  UNL     1       0.296   5.997  10.842  1.00  0.00     0.039 C 
HETATM    8  C6  UNL     1      -0.400   6.965  11.810  1.00  0.00     0.006 C 
HETATM    9  C7  UNL     1       0.566   7.978  12.483  1.00  0.00    -0.027 A 
HETATM   10  C8  UNL     1      -0.124   8.907  13.507  1.00  0.00     0.011 C 
HETATM   11  C9  UNL     1      -1.121   8.226  14.455  1.00  0.00     0.011 C 
HETATM   12  C10 UNL     1      -2.140   7.380  13.674  1.00  0.00    -0.032 C 
HETATM   13  C11 UNL     1      -2.964   8.330  12.758  1.00  0.00     0.016 C 
HETATM   14  C12 UNL     1      -3.124   6.492  14.504  1.00  0.00    -0.002 C 
HETATM   15  C21 UNL     1      -3.453   5.322  13.525  1.00  0.00     0.006 C 
HETATM   16  C22 UNL     1      -2.444   5.396  12.362  1.00  0.00     0.011 C 
HETATM   17  C23 UNL     1      -1.306   6.283  12.891  1.00  0.00    -0.032 C 
HETATM   18  C24 UNL     1      -0.425   5.382  13.815  1.00  0.00     0.016 C 
HETATM   19  C25 UNL     1       1.497   8.780  11.608  1.00  0.00     0.022 A 
HETATM   20  C26 UNL     1       2.109   7.685  12.454  1.00  0.00    -0.021 A 
HETATM   21  C30 UNL     1       2.667   6.472  11.696  1.00  0.00     0.063 C 
ENDROOT
BRANCH  14  22
HETATM   22  C13 UNL     1      -4.382   7.044  15.245  1.00  0.00    -0.014 C 
HETATM   23  C14 UNL     1      -5.316   6.015  15.900  1.00  0.00     0.010 C 
BRANCH  22  24
HETATM   24  C15 UNL     1      -5.243   8.020  14.410  1.00  0.00     0.008 C 
BRANCH  24  25
HETATM   25  C16 UNL     1      -6.236   7.386  13.427  1.00  0.00     0.028 C 
BRANCH  25  26
HETATM   26  C17 UNL     1      -6.451   5.916  13.660  1.00  0.00    -0.022 C 
HETATM   27  C18 UNL     1      -7.407   5.125  13.127  1.00  0.00    -0.064 C 
HETATM   28  C19 UNL     1      -8.440   5.606  12.141  1.00  0.00     0.045 C 
BRANCH  27  29
HETATM   29  C20 UNL     1      -7.553   3.656  13.466  1.00  0.00     0.197 C 
BRANCH  29  30
HETATM   30  O3  UNL     1      -8.774   3.113  12.987  1.00  0.00    -0.397 OA
HETATM   31  H29 UNL     1      -9.483   3.607  13.430  1.00  0.00     0.209 HD
ENDBRANCH  29  30
ENDBRANCH  27  29
ENDBRANCH  25  26
ENDBRANCH  24  25
ENDBRANCH  22  24
ENDBRANCH  14  22
BRANCH  20  32
HETATM   32  C27 UNL     1       2.917   8.020  13.716  1.00  0.00     0.021 C 
BRANCH  32  33
HETATM   33  C28 UNL     1       4.434   8.018  13.529  1.00  0.00     0.111 C 
BRANCH  33  34
HETATM   34  C29 UNL     1       5.239   7.784  14.778  1.00  0.00     0.139 C 
HETATM   35  O4  UNL     1       5.139   8.425  15.811  1.00  0.00    -0.650 OA
BRANCH  34  36
HETATM   36  O5  UNL     1       6.055   6.718  14.718  1.00  0.00    -0.776 OA
HETATM   37  H43 UNL     1       6.454   6.676  15.614  1.00  0.00     0.167 HD
ENDBRANCH  34  36
ENDBRANCH  33  34
ENDBRANCH  32  33
ENDBRANCH  20  32
TORSDOF 10
ENDMDL
