MODEL 1
REMARK minimizedAffinity -7.32069921
REMARK CNNscore 0.608642638
REMARK CNNaffinity 6.3522644
REMARK  9 active torsions:
REMARK  status: ('A' for Active; 'I' for Inactive)
REMARK    1  A    between atoms: C2_2  and  C4_4 
REMARK    2  A    between atoms: C4_4  and  O1_5 
REMARK    3  A    between atoms: C4_4  and  C5_7 
REMARK    4  A    between atoms: O1_5  and  O2_6 
REMARK    5  A    between atoms: C5_7  and  O3_8 
REMARK    6  A    between atoms: C5_7  and  C6_9 
REMARK    7  A    between atoms: C6_9  and  C7_10 
REMARK    8  A    between atoms: C7_10  and  C9_12 
REMARK    9  A    between atoms: C20_23  and  O4_24 
ROOT
HETATM    1  C9  UNL     1       5.923  55.893  -7.791  1.00  0.00    -0.002 C 
HETATM    2  C10 UNL     1       6.735  54.823  -8.569  1.00  0.00     0.006 C 
HETATM    3  C11 UNL     1       5.741  54.010  -9.417  1.00  0.00     0.011 C 
HETATM    4  C12 UNL     1       4.422  54.801  -9.360  1.00  0.00    -0.032 C 
HETATM    5  C13 UNL     1       4.512  55.898 -10.467  1.00  0.00     0.016 C 
HETATM    6  C14 UNL     1       3.149  53.938  -9.558  1.00  0.00     0.004 C 
HETATM    7  C15 UNL     1       2.955  53.421 -10.991  1.00  0.00     0.006 C 
HETATM    8  C16 UNL     1       1.720  52.529 -11.073  1.00  0.00     0.006 C 
HETATM    9  C17 UNL     1       0.450  53.363 -10.875  1.00  0.00     0.001 C 
HETATM   10  C18 UNL     1      -0.845  52.509 -10.801  1.00  0.00     0.015 C 
HETATM   11  C19 UNL     1      -1.057  51.686 -12.081  1.00  0.00     0.013 C 
HETATM   12  C20 UNL     1      -2.092  53.392 -10.531  1.00  0.00     0.122 C 
HETATM   13  C21 UNL     1      -1.798  54.892 -10.565  1.00  0.00     0.033 C 
HETATM   14  C22 UNL     1      -0.649  55.287  -9.628  1.00  0.00     0.013 C 
HETATM   15  C23 UNL     1       0.504  54.285  -9.654  1.00  0.00    -0.027 A 
HETATM   16  C24 UNL     1       0.899  53.720  -8.311  1.00  0.00     0.021 A 
HETATM   17  C25 UNL     1       1.876  54.640  -9.024  1.00  0.00    -0.027 A 
HETATM   18  C26 UNL     1       2.037  56.055  -8.470  1.00  0.00     0.011 C 
HETATM   19  C27 UNL     1       3.340  56.384  -7.723  1.00  0.00     0.011 C 
HETATM   20  C28 UNL     1       4.457  55.346  -7.883  1.00  0.00    -0.032 C 
HETATM   21  C29 UNL     1       4.252  54.249  -6.797  1.00  0.00     0.016 C 
ENDROOT
BRANCH   1  22
HETATM   22  C7  UNL     1       6.543  56.235  -6.402  1.00  0.00    -0.011 C 
HETATM   23  C8  UNL     1       6.264  57.677  -5.988  1.00  0.00     0.010 C 
BRANCH  22  24
HETATM   24  C6  UNL     1       8.060  55.884  -6.272  1.00  0.00     0.039 C 
BRANCH  24  25
HETATM   25  C5  UNL     1       8.860  56.318  -5.026  1.00  0.00     0.154 C 
BRANCH  25  26
HETATM   26  C4  UNL     1      10.254  56.965  -5.280  1.00  0.00     0.216 C 
BRANCH  26  27
HETATM   27  C2  UNL     1      10.337  58.442  -4.912  1.00  0.00    -0.059 C 
HETATM   28  C1  UNL     1       9.311  59.297  -5.080  1.00  0.00     0.016 C 
HETATM   29  C3  UNL     1      11.624  58.911  -4.289  1.00  0.00     0.045 C 
ENDBRANCH  26  27
BRANCH  26  30
HETATM   30  O1  UNL     1      11.224  56.273  -4.447  1.00  0.00    -0.231 OA
BRANCH  30  31
HETATM   31  O2  UNL     1      12.402  56.027  -5.266  1.00  0.00    -0.250 OA
HETATM   32  H7  UNL     1      13.002  56.615  -4.771  1.00  0.00     0.253 HD
ENDBRANCH  30  31
ENDBRANCH  26  30
ENDBRANCH  25  26
BRANCH  25  33
HETATM   33  O3  UNL     1       8.970  55.216  -4.120  1.00  0.00    -0.393 OA
HETATM   34  H9  UNL     1       9.685  55.457  -3.492  1.00  0.00     0.210 HD
ENDBRANCH  25  33
ENDBRANCH  24  25
ENDBRANCH  22  24
ENDBRANCH   1  22
BRANCH  12  35
HETATM   35  O4  UNL     1      -2.623  53.045  -9.247  1.00  0.00    -0.395 OA
HETATM   36  H35 UNL     1      -3.439  53.559  -9.120  1.00  0.00     0.210 HD
ENDBRANCH  12  35
TORSDOF 9
ENDMDL
