MODEL 1
REMARK minimizedAffinity -7.399786
REMARK CNNscore 0.619244814
REMARK CNNaffinity 6.87979698
REMARK  9 active torsions:
REMARK  status: ('A' for Active; 'I' for Inactive)
REMARK    1  A    between atoms: C3_3  and  O1_4 
REMARK    2  A    between atoms: N1_14  and  O2_16 
REMARK    3  A    between atoms: O2_16  and  C13_17 
REMARK    4  A    between atoms: C13_17  and  C14_18 
REMARK       I    between atoms: C14_18  and  N2_20 
REMARK    5  A    between atoms: N2_20  and  C15_21 
REMARK    6  A    between atoms: C15_21  and  C16_22 
REMARK    7  A    between atoms: C15_21  and  C18_26 
REMARK    8  A    between atoms: C16_22  and  C17_23 
REMARK    9  A    between atoms: C17_23  and  O5_25 
ROOT
HETATM    1  C1  UNL     1     -12.499   3.061  30.333  1.00  0.00     0.015 C 
HETATM    2  C2  UNL     1     -12.907   2.628  29.289  1.00  0.00    -0.078 C 
HETATM    3  C3  UNL     1     -13.412   2.095  28.013  1.00  0.00     0.128 C 
HETATM    4  C4  UNL     1     -12.289   1.843  27.006  1.00  0.00     0.052 C 
HETATM    5  C5  UNL     1     -12.949   1.923  25.625  1.00  0.00     0.010 C 
HETATM    6  C6  UNL     1     -14.401   2.409  25.839  1.00  0.00     0.002 C 
HETATM    7  C7  UNL     1     -14.891   3.302  24.674  1.00  0.00    -0.004 C 
HETATM    8  C8  UNL     1     -16.434   3.262  24.554  1.00  0.00     0.010 C 
HETATM    9  C9  UNL     1     -17.072   4.549  24.040  1.00  0.00     0.035 C 
HETATM   10  C10 UNL     1     -16.189   5.182  23.007  1.00  0.00    -0.069 C 
HETATM   11  C11 UNL     1     -16.595   5.297  21.730  1.00  0.00     0.030 C 
HETATM   12  C12 UNL     1     -15.711   5.872  20.686  1.00  0.00     0.032 C 
HETATM   13  N1  UNL     1     -16.256   6.208  19.550  1.00  0.00    -0.271 N 
ATOM     14  H1  UNL     1     -17.245   6.088  19.331  1.00  0.00     0.194 HD
HETATM   15  C25 UNL     1     -14.241   6.078  21.009  1.00  0.00     0.060 C 
HETATM   16  C26 UNL     1     -13.818   5.392  22.307  1.00  0.00     0.020 C 
HETATM   17  C27 UNL     1     -14.808   5.615  23.487  1.00  0.00    -0.016 C 
HETATM   18  C28 UNL     1     -14.856   7.120  23.830  1.00  0.00     0.020 C 
HETATM   19  C29 UNL     1     -14.313   4.743  24.716  1.00  0.00     0.002 C 
HETATM   20  C30 UNL     1     -14.524   5.360  26.112  1.00  0.00     0.007 C 
HETATM   21  C31 UNL     1     -13.868   4.509  27.200  1.00  0.00     0.014 C 
HETATM   22  C32 UNL     1     -14.389   3.051  27.257  1.00  0.00     0.003 C 
HETATM   23  C33 UNL     1     -15.782   3.039  27.918  1.00  0.00     0.020 C 
ENDROOT
BRANCH   3  24
HETATM   24  O1  UNL     1     -14.052   0.838  28.261  1.00  0.00    -0.377 OA
HETATM   25  H2  UNL     1     -13.589   0.424  29.008  1.00  0.00     0.211 HD
ENDBRANCH   3  24
BRANCH  13  26
HETATM   26  O2  UNL     1     -15.314   6.754  18.665  1.00  0.00    -0.271 OA
BRANCH  26  27
HETATM   27  C13 UNL     1     -15.852   7.939  18.095  1.00  0.00     0.303 C 
BRANCH  27  28
HETATM   28  C14 UNL     1     -15.305   8.132  16.688  1.00  0.00     0.244 C 
HETATM   29  O3  UNL     1     -15.098   9.242  16.203  1.00  0.00    -0.271 OA
HETATM   30  N2  UNL     1     -15.138   6.954  15.985  1.00  0.00    -0.354 N 
HETATM   31  H16 UNL     1     -15.357   6.094  16.477  1.00  0.00     0.162 HD
BRANCH  30  32
HETATM   32  C15 UNL     1     -14.782   6.919  14.567  1.00  0.00     0.098 C 
BRANCH  32  33
HETATM   33  C16 UNL     1     -15.916   7.495  13.713  1.00  0.00     0.135 C 
BRANCH  33  34
HETATM   34  C17 UNL     1     -16.292   6.564  12.598  1.00  0.00     0.141 C 
HETATM   35  O4  UNL     1     -16.020   6.709  11.417  1.00  0.00    -0.650 OA
BRANCH  34  36
HETATM   36  O5  UNL     1     -16.962   5.476  13.023  1.00  0.00    -0.776 OA
HETATM   37  H20 UNL     1     -17.161   4.978  12.200  1.00  0.00     0.167 HD
ENDBRANCH  34  36
ENDBRANCH  33  34
ENDBRANCH  32  33
BRANCH  32  38
HETATM   38  C18 UNL     1     -13.434   7.647  14.282  1.00  0.00     0.014 C 
HETATM   39  C19 UNL     1     -13.512   8.563  13.053  1.00  0.00     0.033 C 
HETATM   40  C20 UNL     1     -12.183   9.259  12.802  1.00  0.00     0.169 C 
HETATM   41  O6  UNL     1     -11.130   8.309  12.649  1.00  0.00    -0.381 OA
HETATM   42  C21 UNL     1     -10.928   7.437  13.771  1.00  0.00     0.054 C 
HETATM   43  C22 UNL     1      -9.875   6.413  13.320  1.00  0.00     0.045 C 
HETATM   44  C23 UNL     1     -10.359   8.215  14.967  1.00  0.00     0.045 C 
HETATM   45  C24 UNL     1     -12.235   6.696  14.125  1.00  0.00     0.044 C 
ENDBRANCH  32  38
ENDBRANCH  30  32
ENDBRANCH  27  28
ENDBRANCH  26  27
ENDBRANCH  13  26
TORSDOF 9
ENDMDL
