MODEL 1
REMARK minimizedAffinity -8.00040531
REMARK CNNscore 0.815748036
REMARK CNNaffinity 7.25114393
REMARK  15 active torsions:
REMARK  status: ('A' for Active; 'I' for Inactive)
REMARK    1  A    between atoms: C19_20  and  O2_21 
REMARK    2  A    between atoms: C19_20  and  C20_22 
REMARK    3  A    between atoms: C20_22  and  C21_24 
REMARK    4  A    between atoms: C21_24  and  O4_25 
REMARK    5  A    between atoms: O4_25  and  C22_26 
REMARK    6  A    between atoms: C22_26  and  C23_28 
REMARK    7  A    between atoms: C23_28  and  C24_29 
REMARK    8  A    between atoms: C24_29  and  C25_30 
REMARK       I    between atoms: C25_30  and  N1_32 
REMARK    9  A    between atoms: N1_32  and  C26_33 
REMARK   10  A    between atoms: C26_33  and  C27_34 
REMARK   11  A    between atoms: C27_34  and  C28_35 
REMARK   12  A    between atoms: C28_35  and  C29_36 
REMARK   13  A    between atoms: C29_36  and  C30_37 
REMARK   14  A    between atoms: C30_37  and  C31_38 
REMARK   15  A    between atoms: C31_38  and  O8_40 
ROOT
HETATM    1  C1  UNL     1      -8.716   6.503  13.170  1.00  0.00     0.020 C 
HETATM    2  C2  UNL     1      -7.420   5.638  13.238  1.00  0.00    -0.016 C 
HETATM    3  C3  UNL     1      -7.395   4.861  11.884  1.00  0.00     0.022 C 
HETATM    4  C4  UNL     1      -6.794   3.463  11.920  1.00  0.00     0.084 C 
HETATM    5  C5  UNL     1      -7.321   2.670  13.088  1.00  0.00     0.149 C 
HETATM    6  O1  UNL     1      -7.516   1.459  13.027  1.00  0.00    -0.293 OA
HETATM    7  C6  UNL     1      -7.499   3.375  14.377  1.00  0.00     0.053 C 
HETATM    8  C7  UNL     1      -7.500   4.717  14.453  1.00  0.00    -0.068 C 
HETATM    9  C8  UNL     1      -7.518   5.406  15.800  1.00  0.00     0.035 C 
HETATM   10  C9  UNL     1      -6.334   6.373  15.959  1.00  0.00     0.010 C 
HETATM   11  C10 UNL     1      -6.202   7.344  14.767  1.00  0.00    -0.004 C 
HETATM   12  C11 UNL     1      -6.168   6.576  13.416  1.00  0.00     0.002 C 
HETATM   13  C12 UNL     1      -4.815   5.848  13.218  1.00  0.00     0.007 C 
HETATM   14  C13 UNL     1      -3.629   6.386  14.023  1.00  0.00     0.013 C 
HETATM   15  C14 UNL     1      -3.653   7.899  14.284  1.00  0.00    -0.002 C 
HETATM   16  C15 UNL     1      -3.374   8.639  12.951  1.00  0.00     0.019 C 
HETATM   17  C16 UNL     1      -5.046   8.370  14.822  1.00  0.00     0.002 C 
HETATM   18  C17 UNL     1      -4.789   9.030  16.182  1.00  0.00     0.009 C 
HETATM   19  C18 UNL     1      -3.359   9.536  16.069  1.00  0.00     0.047 C 
HETATM   20  C19 UNL     1      -2.643   8.354  15.400  1.00  0.00     0.128 C 
ENDROOT
BRANCH  20  21
HETATM   21  O2  UNL     1      -2.507   7.336  16.402  1.00  0.00    -0.381 OA
HETATM   22  H27 UNL     1      -1.900   7.672  17.095  1.00  0.00     0.211 HD
ENDBRANCH  20  21
BRANCH  20  23
HETATM   23  C20 UNL     1      -1.235   8.724  14.899  1.00  0.00     0.185 C 
HETATM   24  O3  UNL     1      -1.026   9.140  13.756  1.00  0.00    -0.292 OA
BRANCH  23  25
HETATM   25  C21 UNL     1      -0.090   8.571  15.902  1.00  0.00     0.260 C 
BRANCH  25  26
HETATM   26  O4  UNL     1      -0.337   9.242  17.137  1.00  0.00    -0.314 OA
BRANCH  26  27
HETATM   27  C22 UNL     1       0.581  10.203  17.436  1.00  0.00     0.259 C 
HETATM   28  O5  UNL     1       1.558  10.484  16.749  1.00  0.00    -0.265 OA
BRANCH  27  29
HETATM   29  C23 UNL     1       0.249  10.858  18.748  1.00  0.00     0.120 C 
BRANCH  29  30
HETATM   30  C24 UNL     1       1.468  11.586  19.291  1.00  0.00     0.112 C 
BRANCH  30  31
HETATM   31  C25 UNL     1       2.110  10.806  20.418  1.00  0.00     0.217 C 
HETATM   32  O6  UNL     1       1.639   9.769  20.874  1.00  0.00    -0.274 OA
HETATM   33  N1  UNL     1       3.280  11.378  20.877  1.00  0.00    -0.361 N 
HETATM   34  H34 UNL     1       3.718  12.078  20.290  1.00  0.00     0.162 HD
BRANCH  33  35
HETATM   35  C26 UNL     1       4.118  10.655  21.813  1.00  0.00     0.122 C 
BRANCH  35  36
HETATM   36  C27 UNL     1       4.568  11.546  22.965  1.00  0.00     0.020 C 
BRANCH  36  37
HETATM   37  C28 UNL     1       6.091  11.587  23.136  1.00  0.00     0.002 C 
BRANCH  37  38
HETATM   38  C29 UNL     1       6.789  12.823  22.557  1.00  0.00     0.010 C 
BRANCH  38  39
HETATM   39  C30 UNL     1       8.222  13.002  23.055  1.00  0.00     0.110 C 
BRANCH  39  40
HETATM   40  C31 UNL     1       9.232  12.596  22.013  1.00  0.00     0.139 C 
HETATM   41  O7  UNL     1       9.293  11.545  21.402  1.00  0.00    -0.650 OA
BRANCH  40  42
HETATM   42  O8  UNL     1      10.137  13.571  21.787  1.00  0.00    -0.776 OA
HETATM   43  H45 UNL     1      10.721  13.192  21.095  1.00  0.00     0.167 HD
ENDBRANCH  40  42
ENDBRANCH  39  40
ENDBRANCH  38  39
ENDBRANCH  37  38
ENDBRANCH  36  37
ENDBRANCH  35  36
ENDBRANCH  33  35
ENDBRANCH  30  31
ENDBRANCH  29  30
ENDBRANCH  27  29
ENDBRANCH  26  27
ENDBRANCH  25  26
ENDBRANCH  23  25
ENDBRANCH  20  23
TORSDOF 15
ENDMDL
