MODEL 1
REMARK minimizedAffinity -10.3074083
REMARK CNNscore 0.391445249
REMARK CNNaffinity 7.37351274
REMARK  15 active torsions:
REMARK  status: ('A' for Active; 'I' for Inactive)
REMARK    1  A    between atoms: C2_2  and  C26_34 
REMARK    2  A    between atoms: C3_3  and  C4_4 
REMARK    3  A    between atoms: C5_5  and  C6_6 
REMARK    4  A    between atoms: C6_6  and  C7_7 
REMARK    5  A    between atoms: C7_7  and  O1_8 
REMARK    6  A    between atoms: C7_7  and  C8_9 
REMARK    7  A    between atoms: C8_9  and  C9_10 
REMARK    8  A    between atoms: C14_16  and  O3_17 
REMARK    9  A    between atoms: C22_28  and  O7_29 
REMARK   10  A    between atoms: C23_30  and  O8_31 
REMARK   11  A    between atoms: C26_34  and  C27_35 
REMARK   12  A    between atoms: C28_36  and  C29_37 
REMARK   13  A    between atoms: C30_38  and  C31_39 
REMARK   14  A    between atoms: C31_39  and  C32_40 
REMARK   15  A    between atoms: C32_40  and  O9_41 
ROOT
HETATM    1  C9  UNL     1      -3.309   2.852  12.123  1.00  0.00     0.134 C 
HETATM    2  C10 UNL     1      -4.069   4.228  12.268  1.00  0.00     0.033 C 
HETATM    3  C11 UNL     1      -3.842   5.035  13.593  1.00  0.00     0.005 C 
HETATM    4  C12 UNL     1      -3.709   6.567  13.362  1.00  0.00     0.032 C 
HETATM    5  C13 UNL     1      -2.625   7.327  14.210  1.00  0.00     0.131 C 
HETATM    6  O2  UNL     1      -1.356   6.961  13.683  1.00  0.00    -0.347 OA
HETATM    7  C14 UNL     1      -0.164   7.566  14.152  1.00  0.00     0.191 C 
HETATM    8  C15 UNL     1       0.863   7.677  12.951  1.00  0.00     0.074 C 
HETATM    9  C16 UNL     1       1.512   6.399  12.297  1.00  0.00     0.037 C 
HETATM   10  C17 UNL     1       0.733   5.633  11.176  1.00  0.00     0.122 C 
HETATM   11  C18 UNL     1      -0.740   5.621  11.417  1.00  0.00     0.035 C 
HETATM   12  C19 UNL     1      -0.718   4.637  12.571  1.00  0.00     0.045 C 
HETATM   13  C20 UNL     1       0.045   3.508  11.954  1.00  0.00     0.221 C 
HETATM   14  O4  UNL     1       1.048   4.201  11.174  1.00  0.00    -0.371 OA
HETATM   15  C21 UNL     1      -0.988   2.499  11.356  1.00  0.00     0.288 C 
HETATM   16  O5  UNL     1      -0.714   1.333  11.083  1.00  0.00    -0.262 OA
HETATM   17  O6  UNL     1      -2.235   3.026  11.123  1.00  0.00    -0.314 OA
HETATM   18  C22 UNL     1      -0.432   8.950  14.818  1.00  0.00     0.209 C 
HETATM   19  C23 UNL     1      -1.578   9.698  14.144  1.00  0.00     0.158 C 
HETATM   20  C24 UNL     1      -2.868   8.854  14.079  1.00  0.00     0.042 C 
HETATM   21  C25 UNL     1      -3.873   9.308  15.148  1.00  0.00     0.015 C 
ENDROOT
BRANCH   1  22
HETATM   22  C8  UNL     1      -4.269   1.777  11.577  1.00  0.00     0.064 C 
BRANCH  22  23
HETATM   23  C7  UNL     1      -5.636   2.353  11.172  1.00  0.00     0.124 C 
BRANCH  23  24
HETATM   24  C6  UNL     1      -6.799   1.838  12.045  1.00  0.00     0.059 C 
BRANCH  24  25
HETATM   25  C5  UNL     1      -7.082   2.667  13.276  1.00  0.00    -0.024 C 
HETATM   26  C4  UNL     1      -7.708   3.853  13.370  1.00  0.00    -0.004 C 
BRANCH  26  27
HETATM   27  C3  UNL     1      -8.283   4.618  12.285  1.00  0.00     0.002 C 
HETATM   28  C2  UNL     1      -8.927   5.800  12.377  1.00  0.00    -0.080 C 
HETATM   29  C1  UNL     1      -9.467   6.458  11.128  1.00  0.00     0.043 C 
BRANCH  28  30
HETATM   30  C26 UNL     1      -9.200   6.567  13.654  1.00  0.00     0.060 C 
BRANCH  30  31
HETATM   31  C27 UNL     1     -10.651   6.497  14.044  1.00  0.00    -0.022 C 
HETATM   32  C28 UNL     1     -11.486   7.494  14.388  1.00  0.00    -0.004 C 
BRANCH  32  33
HETATM   33  C29 UNL     1     -11.142   8.891  14.506  1.00  0.00    -0.004 C 
HETATM   34  C30 UNL     1     -11.948   9.930  14.224  1.00  0.00    -0.025 C 
BRANCH  34  35
HETATM   35  C31 UNL     1     -13.349   9.905  13.667  1.00  0.00     0.053 C 
BRANCH  35  36
HETATM   36  C32 UNL     1     -13.406  10.364  12.212  1.00  0.00     0.168 C 
BRANCH  36  37
HETATM   37  O9  UNL     1     -12.230   9.973  11.513  1.00  0.00    -0.401 OA
HETATM   38  H50 UNL     1     -12.196   8.999  11.532  1.00  0.00     0.209 HD
ENDBRANCH  36  37
ENDBRANCH  35  36
ENDBRANCH  34  35
ENDBRANCH  32  33
ENDBRANCH  30  31
ENDBRANCH  28  30
ENDBRANCH  26  27
ENDBRANCH  24  25
ENDBRANCH  23  24
BRANCH  23  39
HETATM   39  O1  UNL     1      -5.858   2.067   9.788  1.00  0.00    -0.395 OA
HETATM   40  H10 UNL     1      -6.510   1.350   9.721  1.00  0.00     0.210 HD
ENDBRANCH  23  39
ENDBRANCH  22  23
ENDBRANCH   1  22
BRANCH   7  41
HETATM   41  O3  UNL     1       0.382   6.751  15.206  1.00  0.00    -0.363 OA
HETATM   42  H21 UNL     1       1.174   6.307  14.853  1.00  0.00     0.213 HD
ENDBRANCH   7  41
BRANCH  19  43
HETATM   43  O8  UNL     1      -1.211  10.095  12.815  1.00  0.00    -0.392 OA
HETATM   44  H35 UNL     1      -0.613  10.861  12.901  1.00  0.00     0.210 HD
ENDBRANCH  19  43
BRANCH  18  45
HETATM   45  O7  UNL     1      -0.783   8.764  16.207  1.00  0.00    -0.387 OA
HETATM   46  H33 UNL     1      -0.408   7.888  16.440  1.00  0.00     0.210 HD
ENDBRANCH  18  45
TORSDOF 15
ENDMDL
