MODEL 1
REMARK minimizedAffinity -9.68911457
REMARK  5 active torsions:
REMARK  status: ('A' for Active; 'I' for Inactive)
REMARK    1  A    between atoms: C2_2  and  C4_4 
REMARK    2  A    between atoms: C4_4  and  C6_6 
REMARK    3  A    between atoms: C7_7  and  C8_8 
REMARK    4  A    between atoms: C8_8  and  C10_10 
REMARK    5  A    between atoms: C19_20  and  O2_21 
ROOT
HETATM    1  C10 UNL     1      -1.097   5.475  12.991  1.00  0.00     0.001 C 
HETATM    2  C11 UNL     1      -1.286   4.245  12.048  1.00  0.00     0.006 C 
HETATM    3  C12 UNL     1      -2.731   3.787  12.211  1.00  0.00     0.006 C 
HETATM    4  C13 UNL     1      -3.433   5.124  12.374  1.00  0.00     0.001 C 
HETATM    5  C14 UNL     1      -4.947   5.148  12.583  1.00  0.00     0.033 C 
HETATM    6  C15 UNL     1      -5.606   3.954  13.281  1.00  0.00     0.089 C 
HETATM    7  C16 UNL     1      -7.081   4.313  13.473  1.00  0.00     0.162 C 
HETATM    8  O1  UNL     1      -7.955   3.446  13.384  1.00  0.00    -0.295 OA
HETATM    9  C17 UNL     1      -7.268   5.878  13.813  1.00  0.00     0.131 C 
HETATM   10  C18 UNL     1      -8.669   6.299  14.240  1.00  0.00     0.078 C 
HETATM   11  C19 UNL     1      -8.716   6.338  15.763  1.00  0.00     0.121 C 
HETATM   12  C20 UNL     1      -7.733   7.362  16.359  1.00  0.00     0.036 C 
HETATM   13  C21 UNL     1      -6.530   7.703  15.448  1.00  0.00    -0.006 C 
HETATM   14  C22 UNL     1      -5.384   8.262  16.285  1.00  0.00     0.010 C 
HETATM   15  C23 UNL     1      -6.097   6.446  14.686  1.00  0.00     0.067 C 
HETATM   16  C24 UNL     1      -5.398   6.490  13.250  1.00  0.00     0.074 C 
HETATM   17  C25 UNL     1      -4.459   7.640  12.903  1.00  0.00     0.040 C 
HETATM   18  C26 UNL     1      -2.994   7.385  13.338  1.00  0.00     0.013 C 
HETATM   19  C27 UNL     1      -2.574   5.892  13.403  1.00  0.00    -0.036 C 
HETATM   20  C28 UNL     1      -2.753   5.398  14.863  1.00  0.00     0.016 C 
HETATM   21  O3  UNL     1      -6.765   6.752  12.711  1.00  0.00    -0.360 OA
ENDROOT
BRANCH   1  22
HETATM   22  C8  UNL     1      -0.162   6.545  12.359  1.00  0.00     0.008 C 
HETATM   23  C9  UNL     1      -0.908   7.860  12.068  1.00  0.00     0.014 C 
BRANCH  22  24
HETATM   24  C7  UNL     1       0.545   6.149  11.076  1.00  0.00    -0.026 C 
HETATM   25  C6  UNL     1       1.229   6.947  10.236  1.00  0.00    -0.026 C 
BRANCH  25  26
HETATM   26  C4  UNL     1       1.913   6.527   8.946  1.00  0.00     0.007 C 
HETATM   27  C5  UNL     1       3.346   6.021   9.187  1.00  0.00     0.014 C 
BRANCH  26  28
HETATM   28  C2  UNL     1       1.858   7.663   7.882  1.00  0.00    -0.015 C 
HETATM   29  C1  UNL     1       1.790   7.116   6.448  1.00  0.00     0.010 C 
HETATM   30  C3  UNL     1       3.056   8.617   7.983  1.00  0.00     0.010 C 
ENDBRANCH  26  28
ENDBRANCH  25  26
ENDBRANCH  22  24
ENDBRANCH   1  22
BRANCH  11  31
HETATM   31  O2  UNL     1      -8.361   5.050  16.263  1.00  0.00    -0.395 OA
HETATM   32  H30 UNL     1      -9.181   4.588  16.531  1.00  0.00     0.210 HD
ENDBRANCH  11  31
TORSDOF 5
ENDMDL
