MODEL 1
REMARK minimizedAffinity -7.49315596
REMARK CNNscore 0.660491049
REMARK CNNaffinity 6.83542252
REMARK  4 active torsions:
REMARK  status: ('A' for Active; 'I' for Inactive)
REMARK    1  A    between atoms: C2_2  and  C4_4 
REMARK    2  A    between atoms: C4_4  and  C5_5 
REMARK    3  A    between atoms: C5_5  and  O1_6 
REMARK    4  A    between atoms: C8_9  and  C9_10 
ROOT
HETATM    1  C9  UNL     1       3.148  52.540 -10.499  1.00  0.00     0.001 C 
HETATM    2  C10 UNL     1       4.503  51.900 -10.100  1.00  0.00     0.007 C 
HETATM    3  C11 UNL     1       5.173  52.853  -9.094  1.00  0.00     0.011 C 
HETATM    4  C12 UNL     1       4.061  53.827  -8.657  1.00  0.00    -0.032 C 
HETATM    5  C13 UNL     1       3.264  53.110  -7.521  1.00  0.00     0.016 C 
HETATM    6  C14 UNL     1       4.571  55.208  -8.167  1.00  0.00     0.004 C 
HETATM    7  C15 UNL     1       5.294  55.159  -6.816  1.00  0.00     0.007 C 
HETATM    8  C16 UNL     1       5.849  56.538  -6.484  1.00  0.00     0.007 C 
HETATM    9  C17 UNL     1       4.730  57.540  -6.134  1.00  0.00     0.010 C 
HETATM   10  C18 UNL     1       4.217  57.477  -4.639  1.00  0.00     0.018 C 
HETATM   11  C19 UNL     1       4.130  58.900  -4.036  1.00  0.00     0.023 C 
HETATM   12  C20 UNL     1       5.132  56.685  -3.678  1.00  0.00     0.023 C 
HETATM   13  C21 UNL     1       2.810  56.864  -4.593  1.00  0.00     0.135 C 
HETATM   14  O2  UNL     1       2.517  55.943  -3.827  1.00  0.00    -0.297 OA
HETATM   15  C22 UNL     1       1.737  57.477  -5.465  1.00  0.00     0.080 C 
HETATM   16  C23 UNL     1       2.315  58.172  -6.683  1.00  0.00     0.018 C 
HETATM   17  C24 UNL     1       3.568  57.471  -7.167  1.00  0.00    -0.026 A 
HETATM   18  C25 UNL     1       3.906  57.678  -8.621  1.00  0.00     0.021 A 
HETATM   19  C26 UNL     1       3.463  56.290  -8.180  1.00  0.00    -0.027 A 
HETATM   20  C27 UNL     1       2.063  55.849  -8.632  1.00  0.00     0.011 C 
HETATM   21  C28 UNL     1       1.953  54.729  -9.683  1.00  0.00     0.011 C 
HETATM   22  C29 UNL     1       3.272  54.016 -10.003  1.00  0.00    -0.032 C 
HETATM   23  C30 UNL     1       4.021  54.878 -11.056  1.00  0.00     0.016 C 
ENDROOT
BRANCH   1  24
HETATM   24  C8  UNL     1       2.681  52.170 -11.932  1.00  0.00     0.014 C 
HETATM   25  C7  UNL     1       1.209  52.448 -12.282  1.00  0.00     0.010 C 
HETATM   26  C6  UNL     1       0.625  51.375 -13.198  1.00  0.00     0.041 C 
HETATM   27  C4  UNL     1       1.605  50.930 -14.312  1.00  0.00     0.085 C 
HETATM   28  O3  UNL     1       2.897  50.570 -13.764  1.00  0.00    -0.377 OA
HETATM   29  C31 UNL     1       3.079  50.757 -12.361  1.00  0.00     0.174 C 
BRANCH  27  30
HETATM   30  C2  UNL     1       1.881  52.078 -15.350  1.00  0.00     0.014 C 
HETATM   31  C1  UNL     1       1.092  51.986 -16.659  1.00  0.00     0.012 C 
HETATM   32  C3  UNL     1       3.374  52.242 -15.681  1.00  0.00     0.012 C 
ENDBRANCH  27  30
BRANCH  27  33
HETATM   33  C5  UNL     1       1.063  49.633 -14.971  1.00  0.00     0.202 C 
BRANCH  33  34
HETATM   34  O1  UNL     1       1.652  48.439 -14.470  1.00  0.00    -0.398 OA
HETATM   35  H10 UNL     1       2.541  48.366 -14.854  1.00  0.00     0.209 HD
ENDBRANCH  33  34
ENDBRANCH  27  33
ENDBRANCH   1  24
TORSDOF 4
ENDMDL
