MODEL 1
REMARK minimizedAffinity -9.34735012
REMARK  7 active torsions:
REMARK  status: ('A' for Active; 'I' for Inactive)
REMARK    1  A    between atoms: O1_2  and  C2_3 
REMARK    2  A    between atoms: C19_21  and  C20_22 
REMARK    3  A    between atoms: C20_22  and  C22_24 
REMARK    4  A    between atoms: C22_24  and  C23_25 
REMARK    5  A    between atoms: C23_25  and  C24_26 
REMARK    6  A    between atoms: C25_27  and  C27_29 
REMARK    7  A    between atoms: C27_29  and  O4_31 
ROOT
HETATM    1  C2  UNL     1      -4.903  47.340 -21.079  1.00  0.00     0.151 C 
HETATM    2  C3  UNL     1      -6.320  47.417 -21.656  1.00  0.00     0.043 C 
HETATM    3  C4  UNL     1      -6.284  47.390 -23.192  1.00  0.00     0.016 C 
HETATM    4  C5  UNL     1      -7.683  47.135 -23.849  1.00  0.00     0.018 C 
HETATM    5  C6  UNL     1      -8.861  47.793 -23.102  1.00  0.00     0.023 C 
HETATM    6  C7  UNL     1      -7.963  45.617 -23.900  1.00  0.00     0.023 C 
HETATM    7  C8  UNL     1      -7.658  47.623 -25.303  1.00  0.00     0.135 C 
HETATM    8  O2  UNL     1      -8.678  47.954 -25.906  1.00  0.00    -0.297 OA
HETATM    9  C9  UNL     1      -6.325  47.599 -26.008  1.00  0.00     0.080 C 
HETATM   10  C10 UNL     1      -5.235  48.365 -25.261  1.00  0.00     0.021 C 
HETATM   11  C11 UNL     1      -5.509  48.636 -23.752  1.00  0.00    -0.015 C 
HETATM   12  C12 UNL     1      -6.318  49.949 -23.612  1.00  0.00     0.020 C 
HETATM   13  C13 UNL     1      -4.170  48.842 -22.989  1.00  0.00    -0.066 C 
HETATM   14  C14 UNL     1      -3.910  48.232 -21.798  1.00  0.00    -0.039 C 
HETATM   15  C15 UNL     1      -2.542  48.426 -21.137  1.00  0.00    -0.010 C 
HETATM   16  C16 UNL     1      -1.627  47.319 -21.756  1.00  0.00     0.021 C 
HETATM   17  C17 UNL     1      -2.402  48.329 -19.604  1.00  0.00     0.015 C 
HETATM   18  C18 UNL     1      -1.096  49.086 -19.270  1.00  0.00     0.007 C 
HETATM   19  C19 UNL     1      -0.741  49.929 -20.517  1.00  0.00    -0.002 C 
HETATM   20  C28 UNL     1      -2.048  49.908 -21.359  1.00  0.00    -0.029 C 
HETATM   21  C29 UNL     1      -3.069  50.961 -20.838  1.00  0.00     0.016 C 
HETATM   22  C30 UNL     1      -1.859  50.116 -22.862  1.00  0.00     0.015 C 
HETATM   23  C31 UNL     1      -3.153  49.799 -23.641  1.00  0.00     0.036 C 
ENDROOT
BRANCH  19  24
HETATM   24  C20 UNL     1       0.078  51.235 -20.307  1.00  0.00    -0.014 C 
HETATM   25  C21 UNL     1      -0.203  51.796 -18.900  1.00  0.00     0.010 C 
BRANCH  24  26
HETATM   26  C22 UNL     1       0.092  52.369 -21.359  1.00  0.00     0.008 C 
BRANCH  26  27
HETATM   27  C23 UNL     1       0.848  52.222 -22.683  1.00  0.00     0.028 C 
BRANCH  27  28
HETATM   28  C24 UNL     1       0.351  53.082 -23.808  1.00  0.00    -0.013 C 
HETATM   29  C25 UNL     1       0.581  52.909 -25.126  1.00  0.00     0.008 C 
HETATM   30  C26 UNL     1       1.428  51.832 -25.732  1.00  0.00     0.055 C 
BRANCH  29  31
HETATM   31  C27 UNL     1      -0.049  53.893 -26.042  1.00  0.00     0.171 C 
HETATM   32  O3  UNL     1      -0.734  53.646 -27.019  1.00  0.00    -0.646 OA
BRANCH  31  33
HETATM   33  O4  UNL     1       0.216  55.162 -25.692  1.00  0.00    -0.773 OA
HETATM   34  H41 UNL     1      -0.253  55.687 -26.372  1.00  0.00     0.167 HD
ENDBRANCH  31  33
ENDBRANCH  29  31
ENDBRANCH  27  28
ENDBRANCH  26  27
ENDBRANCH  24  26
ENDBRANCH  19  24
BRANCH   1  35
HETATM   35  O1  UNL     1      -4.429  45.993 -21.186  1.00  0.00    -0.386 OA
HETATM   36  C1  UNL     1      -4.550  45.260 -19.975  1.00  0.00     0.202 C 
ENDBRANCH   1  35
TORSDOF 7
ENDMDL
