MODEL 1
REMARK minimizedAffinity -9.1461916
REMARK  5 active torsions:
REMARK  status: ('A' for Active; 'I' for Inactive)
REMARK    1  A    between atoms: C2_2  and  C4_4 
REMARK    2  A    between atoms: C7_7  and  C8_8 
REMARK    3  A    between atoms: C8_8  and  O2_10 
REMARK    4  A    between atoms: C11_13  and  C12_14 
REMARK    5  A    between atoms: C12_14  and  O4_16 
ROOT
HETATM    1  C4  UNL     1      -7.672   5.550  13.654  1.00  0.00     0.019 C 
HETATM    2  C5  UNL     1      -8.937   6.248  14.221  1.00  0.00     0.011 C 
HETATM    3  C6  UNL     1      -8.469   7.561  14.869  1.00  0.00     0.021 C 
HETATM    4  C7  UNL     1      -6.993   7.307  15.195  1.00  0.00     0.050 C 
HETATM    5  C9  UNL     1      -6.137   8.568  15.370  1.00  0.00     0.022 C 
HETATM    6  C10 UNL     1      -4.636   8.207  15.421  1.00  0.00     0.023 C 
HETATM    7  C11 UNL     1      -4.124   7.420  14.160  1.00  0.00     0.057 C 
HETATM    8  C13 UNL     1      -5.059   6.152  13.970  1.00  0.00     0.011 C 
HETATM    9  C14 UNL     1      -4.618   5.240  12.817  1.00  0.00     0.007 C 
HETATM   10  C15 UNL     1      -3.134   4.870  12.872  1.00  0.00     0.006 C 
HETATM   11  C16 UNL     1      -2.209   6.100  13.015  1.00  0.00     0.003 C 
HETATM   12  C17 UNL     1      -0.676   5.783  12.748  1.00  0.00    -0.035 C 
HETATM   13  C18 UNL     1      -0.167   4.580  13.594  1.00  0.00     0.016 C 
HETATM   14  C19 UNL     1      -0.524   5.335  11.253  1.00  0.00     0.017 C 
HETATM   15  C20 UNL     1       0.865   5.556  10.686  1.00  0.00     0.080 C 
HETATM   16  C21 UNL     1       1.282   7.009  10.747  1.00  0.00     0.135 C 
HETATM   17  O5  UNL     1       2.166   7.413   9.984  1.00  0.00    -0.297 OA
HETATM   18  C22 UNL     1       0.615   7.917  11.801  1.00  0.00     0.017 C 
HETATM   19  C23 UNL     1      -0.555   8.648  11.129  1.00  0.00     0.023 C 
HETATM   20  C24 UNL     1       1.653   8.997  12.194  1.00  0.00     0.023 C 
HETATM   21  C25 UNL     1       0.264   7.015  13.043  1.00  0.00     0.009 C 
HETATM   22  C26 UNL     1      -0.144   7.765  14.327  1.00  0.00     0.007 C 
HETATM   23  C27 UNL     1      -1.617   8.143  14.403  1.00  0.00     0.011 C 
HETATM   24  C28 UNL     1      -2.583   6.938  14.296  1.00  0.00    -0.022 C 
HETATM   25  C29 UNL     1      -2.415   6.109  15.606  1.00  0.00     0.017 C 
HETATM   26  C30 UNL     1      -6.545   6.579  13.906  1.00  0.00     0.018 C 
ENDROOT
BRANCH   4  27
HETATM   27  C8  UNL     1      -6.975   6.548  16.534  1.00  0.00     0.149 C 
HETATM   28  O1  UNL     1      -6.496   5.437  16.705  1.00  0.00    -0.649 OA
BRANCH  27  29
HETATM   29  O2  UNL     1      -7.506   7.196  17.580  1.00  0.00    -0.776 OA
HETATM   30  H11 UNL     1      -7.352   6.591  18.335  1.00  0.00     0.167 HD
ENDBRANCH  27  29
ENDBRANCH   4  27
BRANCH   1  31
HETATM   31  C2  UNL     1      -7.894   5.094  12.221  1.00  0.00    -0.088 C 
HETATM   32  C1  UNL     1      -7.357   3.948  11.770  1.00  0.00     0.014 C 
HETATM   33  C3  UNL     1      -8.761   5.930  11.318  1.00  0.00     0.043 C 
ENDBRANCH   1  31
BRANCH   7  34
HETATM   34  C12 UNL     1      -4.270   8.371  12.937  1.00  0.00     0.149 C 
HETATM   35  O3  UNL     1      -5.254   8.520  12.229  1.00  0.00    -0.649 OA
BRANCH  34  36
HETATM   36  O4  UNL     1      -3.168   9.095  12.658  1.00  0.00    -0.776 OA
HETATM   37  H16 UNL     1      -3.428   9.637  11.884  1.00  0.00     0.167 HD
ENDBRANCH  34  36
ENDBRANCH   7  34
TORSDOF 5
ENDMDL
