MODEL 1
REMARK minimizedAffinity -9.57266998
REMARK  9 active torsions:
REMARK  status: ('A' for Active; 'I' for Inactive)
REMARK    1  A    between atoms: C3_3  and  O1_4 
REMARK    2  A    between atoms: N1_14  and  O2_16 
REMARK    3  A    between atoms: O2_16  and  C13_17 
REMARK    4  A    between atoms: C13_17  and  C14_18 
REMARK       I    between atoms: C14_18  and  N2_20 
REMARK    5  A    between atoms: N2_20  and  C15_21 
REMARK    6  A    between atoms: C15_21  and  C16_22 
REMARK    7  A    between atoms: C15_21  and  C17_25 
REMARK    8  A    between atoms: C16_22  and  O5_24 
REMARK    9  A    between atoms: C17_25  and  C19_27 
ROOT
HETATM    1  C1  UNL     1      -7.980   5.036  15.979  1.00  0.00     0.015 C 
HETATM    2  C2  UNL     1      -7.326   5.685  15.209  1.00  0.00    -0.078 C 
HETATM    3  C3  UNL     1      -6.537   6.476  14.253  1.00  0.00     0.128 C 
HETATM    4  C4  UNL     1      -6.613   7.996  14.534  1.00  0.00     0.052 C 
HETATM    5  C5  UNL     1      -5.242   8.581  14.130  1.00  0.00     0.010 C 
HETATM    6  C6  UNL     1      -4.501   7.415  13.481  1.00  0.00     0.002 C 
HETATM    7  C7  UNL     1      -2.973   7.479  13.377  1.00  0.00    -0.004 C 
HETATM    8  C8  UNL     1      -2.516   8.725  12.605  1.00  0.00     0.010 C 
HETATM    9  C9  UNL     1      -0.999   8.770  12.480  1.00  0.00     0.035 C 
HETATM   10  C10 UNL     1      -0.440   7.512  11.858  1.00  0.00    -0.069 C 
HETATM   11  C11 UNL     1       0.427   7.609  10.834  1.00  0.00     0.030 C 
HETATM   12  C12 UNL     1       1.107   6.419  10.262  1.00  0.00     0.032 C 
HETATM   13  N1  UNL     1       1.899   6.602   9.244  1.00  0.00    -0.271 N 
ATOM     14  H1  UNL     1       2.054   7.503   8.792  1.00  0.00     0.194 HD
HETATM   15  C21 UNL     1       0.882   5.087  10.947  1.00  0.00     0.060 C 
HETATM   16  C22 UNL     1      -0.528   5.008  11.514  1.00  0.00     0.020 C 
HETATM   17  C23 UNL     1      -0.894   6.180  12.469  1.00  0.00    -0.016 C 
HETATM   18  C24 UNL     1      -0.148   5.986  13.809  1.00  0.00     0.020 C 
HETATM   19  C25 UNL     1      -2.459   6.192  12.658  1.00  0.00     0.002 C 
HETATM   20  C26 UNL     1      -3.024   4.901  13.310  1.00  0.00     0.007 C 
HETATM   21  C27 UNL     1      -4.551   4.930  13.501  1.00  0.00     0.014 C 
HETATM   22  C28 UNL     1      -5.009   6.183  14.267  1.00  0.00     0.003 C 
HETATM   23  C29 UNL     1      -4.470   6.123  15.725  1.00  0.00     0.020 C 
ENDROOT
BRANCH   3  24
HETATM   24  O1  UNL     1      -7.069   6.246  12.945  1.00  0.00    -0.377 OA
HETATM   25  H2  UNL     1      -8.029   6.390  13.001  1.00  0.00     0.211 HD
ENDBRANCH   3  24
BRANCH  13  26
HETATM   26  O2  UNL     1       2.511   5.406   8.848  1.00  0.00    -0.271 OA
BRANCH  26  27
HETATM   27  C13 UNL     1       3.568   5.102   9.754  1.00  0.00     0.303 C 
BRANCH  27  28
HETATM   28  C14 UNL     1       4.263   6.378  10.225  1.00  0.00     0.244 C 
HETATM   29  O3  UNL     1       4.379   7.365   9.503  1.00  0.00    -0.271 OA
HETATM   30  N2  UNL     1       4.763   6.322  11.505  1.00  0.00    -0.344 N 
HETATM   31  H16 UNL     1       4.451   5.543  12.081  1.00  0.00     0.163 HD
BRANCH  30  32
HETATM   32  C15 UNL     1       5.369   7.464  12.184  1.00  0.00     0.186 C 
BRANCH  32  33
HETATM   33  C16 UNL     1       6.840   7.531  11.771  1.00  0.00     0.163 C 
HETATM   34  O4  UNL     1       7.776   7.865  12.485  1.00  0.00    -0.648 OA
BRANCH  33  35
HETATM   35  O5  UNL     1       7.056   7.158  10.494  1.00  0.00    -0.775 OA
HETATM   36  H18 UNL     1       8.024   7.258  10.374  1.00  0.00     0.167 HD
ENDBRANCH  33  35
ENDBRANCH  32  33
BRANCH  32  37
HETATM   37  C17 UNL     1       4.641   8.804  11.922  1.00  0.00     0.014 C 
HETATM   38  C18 UNL     1       5.633   9.944  11.667  1.00  0.00     0.012 C 
BRANCH  37  39
HETATM   39  C19 UNL     1       3.567   9.202  12.961  1.00  0.00     0.002 C 
HETATM   40  C20 UNL     1       3.403  10.687  13.248  1.00  0.00     0.005 C 
ENDBRANCH  37  39
ENDBRANCH  32  37
ENDBRANCH  30  32
ENDBRANCH  27  28
ENDBRANCH  26  27
ENDBRANCH  13  26
TORSDOF 9
ENDMDL
