MODEL 1
REMARK minimizedAffinity -6.23889208
REMARK CNNscore 0.555425823
REMARK CNNaffinity 6.49473715
REMARK  14 active torsions:
REMARK  status: ('A' for Active; 'I' for Inactive)
REMARK    1  A    between atoms: C2_2  and  C3_3 
REMARK    2  A    between atoms: C2_2  and  C27_31 
REMARK    3  A    between atoms: C4_4  and  C5_5 
REMARK    4  A    between atoms: C6_6  and  C7_7 
REMARK    5  A    between atoms: C6_6  and  C9_9 
REMARK    6  A    between atoms: C13_13  and  O1_14 
REMARK    7  A    between atoms: C15_16  and  C16_17 
REMARK    8  A    between atoms: C16_17  and  C17_18 
REMARK    9  A    between atoms: C17_18  and  C18_19 
REMARK   10  A    between atoms: C18_19  and  O2_20 
REMARK   11  A    between atoms: C20_22  and  C22_24 
REMARK   12  A    between atoms: C25_28  and  O4_30 
REMARK   13  A    between atoms: C27_31  and  C28_32 
REMARK   14  A    between atoms: C28_32  and  C29_33 
ROOT
HETATM    1  C9  UNL     1      -3.692  11.311  16.490  1.00  0.00     0.044 C 
HETATM    2  C10 UNL     1      -3.240  10.334  17.586  1.00  0.00     0.013 C 
HETATM    3  C11 UNL     1      -2.109   9.541  16.967  1.00  0.00     0.017 C 
HETATM    4  C12 UNL     1      -2.467   9.335  15.468  1.00  0.00     0.025 C 
HETATM    5  C13 UNL     1      -3.148  10.731  15.129  1.00  0.00     0.141 C 
HETATM    6  C15 UNL     1      -1.111   8.892  14.720  1.00  0.00     0.029 C 
HETATM    7  C19 UNL     1      -1.378   7.997  13.489  1.00  0.00    -0.066 C 
HETATM    8  C20 UNL     1      -0.634   6.910  13.152  1.00  0.00    -0.021 C 
HETATM    9  C21 UNL     1       0.560   6.374  13.903  1.00  0.00     0.052 C 
HETATM   10  C23 UNL     1      -2.661   8.402  12.814  1.00  0.00     0.038 C 
HETATM   11  C24 UNL     1      -3.832   8.007  13.715  1.00  0.00     0.042 C 
HETATM   12  C25 UNL     1      -3.558   8.197  15.237  1.00  0.00     0.065 C 
HETATM   13  C26 UNL     1      -3.196   6.852  15.900  1.00  0.00     0.047 C 
ENDROOT
BRANCH   5  14
HETATM   14  O1  UNL     1      -2.281  11.646  14.466  1.00  0.00    -0.389 OA
HETATM   15  C14 UNL     1      -1.140  12.004  15.240  1.00  0.00     0.202 C 
ENDBRANCH   5  14
BRANCH   6  16
HETATM   16  C16 UNL     1      -0.136  10.047  14.372  1.00  0.00     0.012 C 
BRANCH  16  17
HETATM   17  C17 UNL     1       1.227   9.616  13.814  1.00  0.00     0.027 C 
BRANCH  17  18
HETATM   18  C18 UNL     1       2.385  10.067  14.705  1.00  0.00     0.164 C 
BRANCH  18  19
HETATM   19  O2  UNL     1       2.555   9.187  15.808  1.00  0.00    -0.401 OA
HETATM   20  H27 UNL     1       2.901   8.347  15.460  1.00  0.00     0.209 HD
ENDBRANCH  18  19
ENDBRANCH  17  18
ENDBRANCH  16  17
ENDBRANCH   6  16
BRANCH  12  21
HETATM   21  O4  UNL     1      -4.819   8.571  15.817  1.00  0.00    -0.389 OA
HETATM   22  H39 UNL     1      -5.453   7.850  15.659  1.00  0.00     0.210 HD
ENDBRANCH  12  21
BRANCH   1  23
HETATM   23  C6  UNL     1      -3.366  12.777  16.831  1.00  0.00    -0.074 C 
HETATM   24  C5  UNL     1      -2.374  13.149  17.672  1.00  0.00     0.003 C 
BRANCH  24  25
HETATM   25  C4  UNL     1      -1.493  12.294  18.445  1.00  0.00     0.001 C 
HETATM   26  C3  UNL     1      -0.468  12.784  19.166  1.00  0.00     0.006 C 
BRANCH  26  27
HETATM   27  C2  UNL     1       0.470  12.014  19.986  1.00  0.00    -0.067 C 
HETATM   28  C1  UNL     1       0.355  10.673  19.991  1.00  0.00     0.019 C 
BRANCH  27  29
HETATM   29  C27 UNL     1       1.521  12.776  20.781  1.00  0.00     0.041 C 
BRANCH  29  30
HETATM   30  C28 UNL     1       2.780  12.002  21.203  1.00  0.00     0.032 C 
BRANCH  30  31
HETATM   31  C29 UNL     1       2.428  10.663  21.796  1.00  0.00    -0.024 C 
HETATM   32  C30 UNL     1       3.190   9.889  22.594  1.00  0.00    -0.091 C 
HETATM   33  C31 UNL     1       2.695   8.545  23.060  1.00  0.00     0.042 C 
HETATM   34  C32 UNL     1       4.560  10.255  23.098  1.00  0.00     0.042 C 
ENDBRANCH  30  31
ENDBRANCH  29  30
ENDBRANCH  27  29
ENDBRANCH  26  27
ENDBRANCH  24  25
BRANCH  23  35
HETATM   35  C7  UNL     1      -4.232  13.822  16.123  1.00  0.00     0.030 C 
HETATM   36  C8  UNL     1      -3.613  14.570  14.945  1.00  0.00     0.010 C 
ENDBRANCH  23  35
ENDBRANCH   1  23
BRANCH   8  37
HETATM   37  C22 UNL     1      -0.957   6.059  11.959  1.00  0.00     0.265 C 
HETATM   38  O3  UNL     1      -0.789   4.843  11.946  1.00  0.00    -0.302 OA
ENDBRANCH   8  37
TORSDOF 14
ENDMDL
