MODEL 1
REMARK minimizedAffinity -7.15557098
REMARK CNNscore 0.502387702
REMARK CNNaffinity 6.89754725
REMARK  7 active torsions:
REMARK  status: ('A' for Active; 'I' for Inactive)
REMARK    1  A    between atoms: C3_3  and  C5_5 
REMARK    2  A    between atoms: C24_26  and  O3_27 
REMARK    3  A    between atoms: C30_35  and  O6_36 
REMARK    4  A    between atoms: C31_38  and  O8_39 
REMARK    5  A    between atoms: C32_40  and  O9_41 
REMARK    6  A    between atoms: O9_41  and  C33_42 
REMARK    7  A    between atoms: C33_42  and  C34_44 
ROOT
HETATM    1  C5  UNL     1       2.021  57.147  -1.503  1.00  0.00     0.160 C 
HETATM    2  O1  UNL     1       2.072  56.609  -2.829  1.00  0.00    -0.342 OA
HETATM    3  C6  UNL     1       1.759  57.566  -3.846  1.00  0.00     0.196 C 
HETATM    4  C7  UNL     1       1.330  56.753  -5.090  1.00  0.00     0.104 C 
HETATM    5  C8  UNL     1       1.677  57.480  -6.386  1.00  0.00     0.139 C 
HETATM    6  C9  UNL     1       3.166  57.847  -6.425  1.00  0.00     0.065 C 
HETATM    7  C10 UNL     1       3.813  57.717  -5.046  1.00  0.00     0.131 C 
HETATM    8  C11 UNL     1       5.226  58.323  -4.994  1.00  0.00     0.059 C 
HETATM    9  C12 UNL     1       6.149  57.529  -5.885  1.00  0.00    -0.022 C 
HETATM   10  C13 UNL     1       6.860  56.434  -5.543  1.00  0.00    -0.087 C 
HETATM   11  C14 UNL     1       7.003  55.932  -4.133  1.00  0.00     0.043 C 
HETATM   12  C15 UNL     1       7.527  55.603  -6.631  1.00  0.00     0.041 C 
HETATM   13  C16 UNL     1       6.900  54.211  -6.940  1.00  0.00     0.008 C 
HETATM   14  C17 UNL     1       7.444  53.118  -6.017  1.00  0.00     0.014 C 
HETATM   15  C18 UNL     1       5.386  54.205  -6.903  1.00  0.00    -0.022 C 
HETATM   16  C19 UNL     1       4.589  54.045  -7.972  1.00  0.00    -0.003 C 
HETATM   17  C20 UNL     1       3.146  54.078  -7.857  1.00  0.00     0.008 C 
HETATM   18  C21 UNL     1       2.273  53.986  -8.876  1.00  0.00    -0.019 C 
HETATM   19  C22 UNL     1       2.597  53.709 -10.318  1.00  0.00     0.206 C 
HETATM   20  O2  UNL     1       1.344  53.361 -10.949  1.00  0.00    -0.375 OA
HETATM   21  C23 UNL     1       0.462  52.995  -9.859  1.00  0.00     0.194 C 
HETATM   22  C24 UNL     1      -1.007  52.948 -10.309  1.00  0.00     0.179 C 
HETATM   23  C25 UNL     1      -1.735  54.266 -10.272  1.00  0.00    -0.056 C 
HETATM   24  C26 UNL     1      -3.127  54.280 -10.845  1.00  0.00     0.046 C 
HETATM   25  C27 UNL     1      -1.192  55.372  -9.735  1.00  0.00    -0.004 C 
HETATM   26  C28 UNL     1       0.191  55.429  -9.120  1.00  0.00     0.150 C 
HETATM   27  C29 UNL     1       0.181  56.347  -7.895  1.00  0.00     0.270 C 
HETATM   28  O4  UNL     1      -0.814  56.789  -7.337  1.00  0.00    -0.264 OA
HETATM   29  O5  UNL     1       1.457  56.638  -7.535  1.00  0.00    -0.315 OA
HETATM   30  C30 UNL     1       0.761  54.024  -8.765  1.00  0.00     0.128 C 
HETATM   31  O7  UNL     1       2.940  58.366  -4.119  1.00  0.00    -0.347 OA
HETATM   32  C31 UNL     1       0.640  58.557  -3.393  1.00  0.00     0.210 C 
HETATM   33  C32 UNL     1      -0.269  57.926  -2.328  1.00  0.00     0.172 C 
HETATM   34  C37 UNL     1       0.542  57.388  -1.118  1.00  0.00     0.047 C 
HETATM   35  C38 UNL     1       0.426  58.335   0.080  1.00  0.00     0.015 C 
ENDROOT
BRANCH  32  36
HETATM   36  O8  UNL     1       1.220  59.755  -2.837  1.00  0.00    -0.387 OA
HETATM   37  H42 UNL     1       2.096  59.838  -3.267  1.00  0.00     0.210 HD
ENDBRANCH  32  36
BRANCH   1  38
HETATM   38  C3  UNL     1       2.743  56.171  -0.572  1.00  0.00    -0.059 C 
HETATM   39  C2  UNL     1       3.517  56.608   0.443  1.00  0.00    -0.026 C 
HETATM   40  C1  UNL     1       4.282  55.805   1.446  1.00  0.00     0.036 C 
HETATM   41  C4  UNL     1       2.470  54.713  -0.844  1.00  0.00     0.046 C 
ENDBRANCH   1  38
BRANCH  33  42
HETATM   42  O9  UNL     1      -0.997  56.835  -2.937  1.00  0.00    -0.312 OA
BRANCH  42  43
HETATM   43  C33 UNL     1      -2.327  56.756  -2.646  1.00  0.00     0.262 C 
HETATM   44  O10 UNL     1      -3.091  57.712  -2.607  1.00  0.00    -0.265 OA
BRANCH  43  45
HETATM   45  C34 UNL     1      -2.714  55.319  -2.330  1.00  0.00     0.077 C 
HETATM   46  C35 UNL     1      -3.999  55.281  -1.501  1.00  0.00     0.020 C 
HETATM   47  C36 UNL     1      -2.881  54.500  -3.606  1.00  0.00     0.020 C 
ENDBRANCH  43  45
ENDBRANCH  42  43
ENDBRANCH  33  42
BRANCH  30  48
HETATM   48  O6  UNL     1       0.311  53.557  -7.497  1.00  0.00    -0.381 OA
HETATM   49  H40 UNL     1      -0.663  53.611  -7.481  1.00  0.00     0.211 HD
ENDBRANCH  30  48
BRANCH  22  50
HETATM   50  O3  UNL     1      -1.078  52.416 -11.629  1.00  0.00    -0.389 OA
HETATM   51  H34 UNL     1      -0.279  52.746 -12.086  1.00  0.00     0.210 HD
ENDBRANCH  22  50
TORSDOF 7
ENDMDL
