MODEL 1
REMARK minimizedAffinity -9.17122078
REMARK  6 active torsions:
REMARK  status: ('A' for Active; 'I' for Inactive)
REMARK    1  A    between atoms: C2_2  and  C30_32 
REMARK    2  A    between atoms: C3_3  and  C4_4 
REMARK    3  A    between atoms: C4_4  and  C5_5 
REMARK    4  A    between atoms: C5_5  and  C6_6 
REMARK    5  A    between atoms: C6_6  and  C8_8 
REMARK    6  A    between atoms: C30_32  and  O4_34 
ROOT
HETATM    1  C8  UNL     1      -6.104   7.374  14.394  1.00  0.00    -0.002 C 
HETATM    2  C9  UNL     1      -5.774   8.685  15.168  1.00  0.00     0.007 C 
HETATM    3  C10 UNL     1      -4.267   8.954  15.012  1.00  0.00     0.015 C 
HETATM    4  C11 UNL     1      -3.811   8.019  13.878  1.00  0.00    -0.005 C 
HETATM    5  C12 UNL     1      -4.140   8.737  12.532  1.00  0.00     0.021 C 
HETATM    6  C13 UNL     1      -2.346   7.622  13.761  1.00  0.00    -0.000 C 
HETATM    7  C14 UNL     1      -1.975   6.436  13.215  1.00  0.00    -0.060 C 
HETATM    8  C15 UNL     1      -3.042   5.417  12.778  1.00  0.00     0.036 C 
HETATM    9  C16 UNL     1      -4.523   5.779  13.017  1.00  0.00     0.015 C 
HETATM   10  C17 UNL     1      -4.690   6.745  14.196  1.00  0.00    -0.028 C 
HETATM   11  C18 UNL     1      -4.263   6.014  15.509  1.00  0.00     0.016 C 
HETATM   12  C19 UNL     1      -0.501   6.005  13.023  1.00  0.00    -0.014 C 
HETATM   13  C20 UNL     1      -0.189   4.936  14.108  1.00  0.00     0.020 C 
HETATM   14  C21 UNL     1      -0.297   5.348  11.626  1.00  0.00     0.021 C 
HETATM   15  C22 UNL     1       1.131   5.458  11.120  1.00  0.00     0.080 C 
HETATM   16  C23 UNL     1       1.460   6.912  10.879  1.00  0.00     0.135 C 
HETATM   17  O1  UNL     1       2.150   7.236   9.911  1.00  0.00    -0.297 OA
HETATM   18  C24 UNL     1       0.917   7.944  11.888  1.00  0.00     0.018 C 
HETATM   19  C25 UNL     1       2.063   8.946  12.156  1.00  0.00     0.023 C 
HETATM   20  C26 UNL     1      -0.229   8.705  11.206  1.00  0.00     0.023 C 
HETATM   21  C27 UNL     1       0.523   7.188  13.210  1.00  0.00     0.020 C 
HETATM   22  C28 UNL     1       0.100   8.087  14.375  1.00  0.00     0.090 C 
HETATM   23  C29 UNL     1      -1.306   8.589  14.223  1.00  0.00     0.157 C 
HETATM   24  O2  UNL     1      -1.587   9.752  14.502  1.00  0.00    -0.293 OA
ENDROOT
BRANCH   1  25
HETATM   25  C6  UNL     1      -7.238   6.560  15.092  1.00  0.00    -0.014 C 
HETATM   26  C7  UNL     1      -7.273   6.800  16.605  1.00  0.00     0.010 C 
BRANCH  25  27
HETATM   27  C5  UNL     1      -7.065   5.044  14.798  1.00  0.00     0.008 C 
BRANCH  27  28
HETATM   28  C4  UNL     1      -7.812   4.562  13.547  1.00  0.00     0.028 C 
BRANCH  28  29
HETATM   29  C3  UNL     1      -6.853   4.073  12.496  1.00  0.00    -0.013 C 
HETATM   30  C2  UNL     1      -6.646   2.797  12.111  1.00  0.00     0.008 C 
HETATM   31  C1  UNL     1      -7.308   1.592  12.713  1.00  0.00     0.055 C 
BRANCH  30  32
HETATM   32  C30 UNL     1      -5.684   2.475  11.023  1.00  0.00     0.171 C 
HETATM   33  O3  UNL     1      -5.435   3.192  10.070  1.00  0.00    -0.646 OA
BRANCH  32  34
HETATM   34  O4  UNL     1      -5.077   1.285  11.162  1.00  0.00    -0.773 OA
HETATM   35  H44 UNL     1      -4.493   1.233  10.378  1.00  0.00     0.167 HD
ENDBRANCH  32  34
ENDBRANCH  30  32
ENDBRANCH  28  29
ENDBRANCH  27  28
ENDBRANCH  25  27
ENDBRANCH   1  25
TORSDOF 6
ENDMDL
