MODEL 1
REMARK minimizedAffinity -9.3363533
REMARK CNNscore 0.457160681
REMARK CNNaffinity 6.74222755
REMARK  18 active torsions:
REMARK  status: ('A' for Active; 'I' for Inactive)
REMARK    1  A    between atoms: C19_20  and  O2_21 
REMARK    2  A    between atoms: C19_20  and  C20_22 
REMARK    3  A    between atoms: C20_22  and  C21_24 
REMARK    4  A    between atoms: C21_24  and  O4_25 
REMARK    5  A    between atoms: O4_25  and  C22_26 
REMARK    6  A    between atoms: C22_26  and  C23_28 
REMARK    7  A    between atoms: C23_28  and  C24_29 
REMARK    8  A    between atoms: C24_29  and  C25_30 
REMARK       I    between atoms: C25_30  and  N1_32 
REMARK    9  A    between atoms: N1_32  and  C26_33 
REMARK   10  A    between atoms: C26_33  and  C27_34 
REMARK   11  A    between atoms: C27_34  and  C28_35 
REMARK   12  A    between atoms: C28_35  and  C29_36 
REMARK   13  A    between atoms: C29_36  and  C30_37 
REMARK   14  A    between atoms: C30_37  and  C31_38 
REMARK       I    between atoms: C31_38  and  N2_40 
REMARK   15  A    between atoms: N2_40  and  C32_41 
REMARK   16  A    between atoms: C32_41  and  C33_42 
REMARK   17  A    between atoms: C36_45  and  C37_46 
REMARK   18  A    between atoms: C37_46  and  O9_48 
ROOT
HETATM    1  C22 UNL     1      -7.781  47.059 -29.147  1.00  0.00     0.259 C 
HETATM    2  O5  UNL     1      -7.903  46.105 -29.901  1.00  0.00    -0.265 OA
ENDROOT
BRANCH   1   3
HETATM    3  O4  UNL     1      -8.633  48.118 -29.095  1.00  0.00    -0.314 OA
BRANCH   3   4
HETATM    4  C21 UNL     1     -10.017  47.810 -29.045  1.00  0.00     0.260 C 
BRANCH   4   5
HETATM    5  C20 UNL     1     -10.697  47.699 -27.675  1.00  0.00     0.185 C 
HETATM    6  O3  UNL     1     -10.014  47.872 -26.657  1.00  0.00    -0.292 OA
BRANCH   5   7
HETATM    7  C19 UNL     1     -12.234  47.527 -27.620  1.00  0.00     0.128 C 
HETATM    8  C14 UNL     1     -12.804  46.486 -26.590  1.00  0.00    -0.002 C 
HETATM    9  C13 UNL     1     -12.903  46.941 -25.119  1.00  0.00     0.013 C 
HETATM   10  C15 UNL     1     -12.018  45.140 -26.646  1.00  0.00     0.019 C 
HETATM   11  C16 UNL     1     -14.254  46.348 -27.147  1.00  0.00     0.002 C 
HETATM   12  C12 UNL     1     -13.786  45.996 -24.271  1.00  0.00     0.007 C 
HETATM   13  C11 UNL     1     -15.200  45.842 -24.883  1.00  0.00     0.002 C 
HETATM   14  C2  UNL     1     -16.213  44.989 -24.048  1.00  0.00    -0.016 C 
HETATM   15  C10 UNL     1     -15.111  45.346 -26.361  1.00  0.00    -0.004 C 
HETATM   16  C1  UNL     1     -15.845  43.487 -24.062  1.00  0.00     0.020 C 
HETATM   17  C3  UNL     1     -16.265  45.476 -22.573  1.00  0.00     0.022 C 
HETATM   18  C7  UNL     1     -17.597  45.187 -24.674  1.00  0.00    -0.068 C 
HETATM   19  C4  UNL     1     -17.409  44.860 -21.768  1.00  0.00     0.084 C 
HETATM   20  C5  UNL     1     -18.732  44.994 -22.480  1.00  0.00     0.149 C 
HETATM   21  O1  UNL     1     -19.805  44.960 -21.883  1.00  0.00    -0.293 OA
HETATM   22  C6  UNL     1     -18.733  45.175 -23.952  1.00  0.00     0.053 C 
HETATM   23  C8  UNL     1     -17.667  45.559 -26.140  1.00  0.00     0.035 C 
HETATM   24  C9  UNL     1     -16.494  45.061 -26.978  1.00  0.00     0.010 C 
HETATM   25  C17 UNL     1     -14.019  46.114 -28.633  1.00  0.00     0.009 C 
HETATM   26  C18 UNL     1     -12.814  47.015 -28.969  1.00  0.00     0.047 C 
BRANCH   7  27
HETATM   27  O2  UNL     1     -12.802  48.825 -27.372  1.00  0.00    -0.381 OA
HETATM   28  H27 UNL     1     -12.486  49.127 -26.503  1.00  0.00     0.211 HD
ENDBRANCH   7  27
ENDBRANCH   5   7
ENDBRANCH   4   5
ENDBRANCH   3   4
ENDBRANCH   1   3
BRANCH   1  29
HETATM   29  C23 UNL     1      -6.626  47.251 -28.199  1.00  0.00     0.120 C 
BRANCH  29  30
HETATM   30  C24 UNL     1      -5.330  47.565 -28.935  1.00  0.00     0.112 C 
BRANCH  30  31
HETATM   31  C25 UNL     1      -4.555  48.678 -28.264  1.00  0.00     0.217 C 
HETATM   32  O6  UNL     1      -3.985  49.572 -28.878  1.00  0.00    -0.274 OA
HETATM   33  N1  UNL     1      -4.558  48.575 -26.889  1.00  0.00    -0.361 N 
HETATM   34  H34 UNL     1      -5.045  47.806 -26.446  1.00  0.00     0.162 HD
BRANCH  33  35
HETATM   35  C26 UNL     1      -3.824  49.497 -26.046  1.00  0.00     0.122 C 
BRANCH  35  36
HETATM   36  C27 UNL     1      -2.306  49.347 -26.166  1.00  0.00     0.020 C 
BRANCH  36  37
HETATM   37  C28 UNL     1      -1.501  50.594 -25.769  1.00  0.00     0.002 C 
BRANCH  37  38
HETATM   38  C29 UNL     1      -0.064  50.620 -26.303  1.00  0.00     0.009 C 
BRANCH  38  39
HETATM   39  C30 UNL     1       0.209  51.843 -27.182  1.00  0.00     0.103 C 
BRANCH  39  40
HETATM   40  C31 UNL     1       0.252  53.153 -26.410  1.00  0.00     0.217 C 
HETATM   41  O7  UNL     1      -0.227  54.206 -26.821  1.00  0.00    -0.274 OA
HETATM   42  N2  UNL     1       0.888  53.022 -25.193  1.00  0.00    -0.357 N 
HETATM   43  H45 UNL     1       1.089  52.091 -24.851  1.00  0.00     0.162 HD
BRANCH  42  44
HETATM   44  C32 UNL     1       0.974  54.120 -24.259  1.00  0.00     0.161 C 
BRANCH  44  45
HETATM   45  C33 UNL     1       0.825  53.632 -22.840  1.00  0.00    -0.040 A 
HETATM   46  C34 UNL     1       0.068  52.485 -22.551  1.00  0.00     0.010 A 
HETATM   47  C35 UNL     1      -0.080  52.050 -21.233  1.00  0.00     0.019 A 
HETATM   48  C36 UNL     1       0.529  52.757 -20.186  1.00  0.00     0.037 A 
HETATM   49  C38 UNL     1       1.281  53.906 -20.466  1.00  0.00     0.019 A 
HETATM   50  C39 UNL     1       1.420  54.344 -21.785  1.00  0.00     0.010 A 
BRANCH  48  51
HETATM   51  C37 UNL     1       0.342  52.257 -18.802  1.00  0.00     0.176 C 
HETATM   52  O8  UNL     1      -0.320  51.288 -18.477  1.00  0.00    -0.646 OA
BRANCH  51  53
HETATM   53  O9  UNL     1       0.995  52.995 -17.886  1.00  0.00    -0.773 OA
HETATM   54  H50 UNL     1       0.787  52.556 -17.034  1.00  0.00     0.167 HD
ENDBRANCH  51  53
ENDBRANCH  48  51
ENDBRANCH  44  45
ENDBRANCH  42  44
ENDBRANCH  39  40
ENDBRANCH  38  39
ENDBRANCH  37  38
ENDBRANCH  36  37
ENDBRANCH  35  36
ENDBRANCH  33  35
ENDBRANCH  30  31
ENDBRANCH  29  30
ENDBRANCH   1  29
TORSDOF 18
ENDMDL
