MODEL 1
REMARK minimizedAffinity -7.31455421
REMARK CNNscore 0.888178885
REMARK CNNaffinity 7.51480627
REMARK  8 active torsions:
REMARK  status: ('A' for Active; 'I' for Inactive)
REMARK    1  A    between atoms: C2_2  and  C3_3 
REMARK    2  A    between atoms: C2_2  and  C9_11 
REMARK    3  A    between atoms: C3_3  and  C4_4 
REMARK    4  A    between atoms: C4_4  and  C5_5 
REMARK    5  A    between atoms: C6_6  and  C7_7 
REMARK    6  A    between atoms: C6_6  and  C8_9 
REMARK    7  A    between atoms: C7_7  and  O1_8 
REMARK    8  A    between atoms: C8_9  and  O2_10 
ROOT
HETATM    1  C9  UNL     1      -1.720  52.382 -10.009  1.00  0.00    -0.002 C 
HETATM    2  C10 UNL     1      -1.026  51.022 -10.296  1.00  0.00     0.007 C 
HETATM    3  C11 UNL     1       0.469  51.186  -9.973  1.00  0.00     0.015 C 
HETATM    4  C12 UNL     1       0.571  52.509  -9.188  1.00  0.00    -0.005 C 
HETATM    5  C13 UNL     1       0.231  52.183  -7.702  1.00  0.00     0.021 C 
HETATM    6  C14 UNL     1       1.890  53.271  -9.125  1.00  0.00    -0.000 C 
HETATM    7  C15 UNL     1       1.912  54.625  -9.003  1.00  0.00    -0.060 C 
HETATM    8  C16 UNL     1       0.606  55.430  -8.971  1.00  0.00     0.036 C 
HETATM    9  C17 UNL     1      -0.718  54.661  -9.160  1.00  0.00     0.015 C 
HETATM   10  C18 UNL     1      -0.513  53.368  -9.956  1.00  0.00    -0.028 C 
HETATM   11  C19 UNL     1      -0.088  53.742 -11.411  1.00  0.00     0.016 C 
HETATM   12  C20 UNL     1       3.232  55.442  -8.953  1.00  0.00    -0.014 C 
HETATM   13  C21 UNL     1       3.514  55.862 -10.414  1.00  0.00     0.020 C 
HETATM   14  C22 UNL     1       3.097  56.708  -8.069  1.00  0.00     0.021 C 
HETATM   15  C23 UNL     1       4.401  57.469  -7.896  1.00  0.00     0.080 C 
HETATM   16  C24 UNL     1       5.467  56.586  -7.300  1.00  0.00     0.135 C 
HETATM   17  O3  UNL     1       6.172  57.012  -6.383  1.00  0.00    -0.297 OA
HETATM   18  C25 UNL     1       5.712  55.216  -7.955  1.00  0.00     0.018 C 
HETATM   19  C26 UNL     1       6.663  55.421  -9.142  1.00  0.00     0.023 C 
HETATM   20  C27 UNL     1       6.460  54.335  -6.921  1.00  0.00     0.023 C 
HETATM   21  C28 UNL     1       4.339  54.540  -8.307  1.00  0.00     0.020 C 
HETATM   22  C29 UNL     1       4.483  53.238  -9.101  1.00  0.00     0.090 C 
HETATM   23  C30 UNL     1       3.171  52.493  -9.162  1.00  0.00     0.157 C 
HETATM   24  O4  UNL     1       3.172  51.268  -9.264  1.00  0.00    -0.293 OA
ENDROOT
BRANCH   1  25
HETATM   25  C2  UNL     1      -2.898  52.653 -10.989  1.00  0.00    -0.014 C 
HETATM   26  C1  UNL     1      -3.808  53.793 -10.521  1.00  0.00     0.010 C 
BRANCH  25  27
HETATM   27  C3  UNL     1      -3.749  51.388 -11.279  1.00  0.00     0.008 C 
BRANCH  27  28
HETATM   28  C4  UNL     1      -4.277  50.655 -10.042  1.00  0.00     0.028 C 
BRANCH  28  29
HETATM   29  C5  UNL     1      -5.714  50.252 -10.238  1.00  0.00    -0.020 C 
HETATM   30  C6  UNL     1      -6.194  49.105 -10.766  1.00  0.00    -0.037 C 
BRANCH  30  31
HETATM   31  C7  UNL     1      -7.676  48.818 -10.896  1.00  0.00     0.200 C 
BRANCH  31  32
HETATM   32  O1  UNL     1      -8.471  49.968 -10.636  1.00  0.00    -0.397 OA
HETATM   33  H12 UNL     1      -8.260  50.596 -11.350  1.00  0.00     0.209 HD
ENDBRANCH  31  32
ENDBRANCH  30  31
BRANCH  30  34
HETATM   34  C8  UNL     1      -5.333  47.974 -11.265  1.00  0.00     0.200 C 
BRANCH  34  35
HETATM   35  O2  UNL     1      -5.662  47.718 -12.624  1.00  0.00    -0.397 OA
HETATM   36  H15 UNL     1      -5.043  47.040 -12.939  1.00  0.00     0.209 HD
ENDBRANCH  34  35
ENDBRANCH  30  34
ENDBRANCH  28  29
ENDBRANCH  27  28
ENDBRANCH  25  27
ENDBRANCH   1  25
TORSDOF 8
ENDMDL
