MODEL 1
REMARK minimizedAffinity -10.8951521
REMARK CNNscore 0.193823248
REMARK CNNaffinity 7.75107193
REMARK  6 active torsions:
REMARK  status: ('A' for Active; 'I' for Inactive)
REMARK    1  A    between atoms: C2_2  and  C3_3 
REMARK    2  A    between atoms: C11_12  and  C12_13 
REMARK    3  A    between atoms: C25_28  and  C26_29 
REMARK    4  A    between atoms: C27_32  and  C30_35 
REMARK    5  A    between atoms: C31_36  and  O3_37 
REMARK    6  A    between atoms: C37_44  and  O4_45 
ROOT
HETATM    1  C12 UNL     1      -6.454   6.615  14.419  1.00  0.00    -0.003 C 
HETATM    2  C13 UNL     1      -5.802   5.692  13.693  1.00  0.00     0.102 C 
HETATM    3  N2  UNL     1      -4.446   5.498  13.751  1.00  0.00    -0.349 N 
HETATM    4  C14 UNL     1      -3.629   4.869  12.784  1.00  0.00     0.041 A 
HETATM    5  C15 UNL     1      -4.031   3.990  11.785  1.00  0.00     0.030 A 
HETATM    6  C16 UNL     1      -3.088   3.520  10.866  1.00  0.00     0.002 A 
HETATM    7  C17 UNL     1      -1.747   3.920  10.951  1.00  0.00     0.001 A 
HETATM    8  C18 UNL     1      -1.340   4.803  11.950  1.00  0.00     0.010 A 
HETATM    9  C19 UNL     1      -2.284   5.264  12.856  1.00  0.00    -0.018 A 
HETATM   10  C20 UNL     1      -2.112   6.283  13.930  1.00  0.00     0.043 C 
HETATM   11  C21 UNL     1      -0.825   6.228  14.788  1.00  0.00     0.049 C 
HETATM   12  C22 UNL     1      -0.095   7.627  14.641  1.00  0.00     0.274 C 
HETATM   13  N3  UNL     1      -0.801   8.450  13.615  1.00  0.00     0.098 N 
HETATM   14  C23 UNL     1      -1.291   9.820  14.145  1.00  0.00     0.308 C 
HETATM   15  C24 UNL     1      -2.859   9.973  14.514  1.00  0.00    -0.041 C 
HETATM   16  C25 UNL     1      -3.338  10.947  15.315  1.00  0.00     0.089 C 
HETATM   17  C27 UNL     1      -3.905   8.922  13.938  1.00  0.00     0.027 C 
HETATM   18  C28 UNL     1      -3.188   8.328  12.743  1.00  0.00     0.046 C 
HETATM   19  C29 UNL     1      -2.016   7.692  13.467  1.00  0.00     0.239 C 
HETATM   20  C30 UNL     1      -4.218   7.713  14.999  1.00  0.00     0.052 C 
HETATM   21  C31 UNL     1      -5.709   7.532  15.360  1.00  0.00     0.160 C 
HETATM   22  C32 UNL     1      -3.544   6.261  14.660  1.00  0.00     0.112 C 
ENDROOT
BRANCH   1  23
HETATM   23  C11 UNL     1      -7.910   6.766  14.284  1.00  0.00    -0.016 A 
HETATM   24  C3  UNL     1      -8.660   6.078  13.323  1.00  0.00    -0.032 A 
HETATM   25  C4  UNL     1     -10.036   6.325  13.256  1.00  0.00     0.104 A 
HETATM   26  N1  UNL     1     -10.664   7.198  14.086  1.00  0.00    -0.330 N 
HETATM   27  C5  UNL     1     -11.998   7.394  13.972  1.00  0.00     0.097 A 
HETATM   28  C9  UNL     1      -9.933   7.865  15.028  1.00  0.00     0.067 A 
HETATM   29  C6  UNL     1     -12.697   8.262  14.800  1.00  0.00     0.032 A 
HETATM   30  C7  UNL     1     -11.993   8.962  15.787  1.00  0.00     0.009 A 
HETATM   31  C8  UNL     1     -10.623   8.753  15.879  1.00  0.00     0.071 A 
HETATM   32  C39 UNL     1     -12.378   9.908  16.793  1.00  0.00     0.036 A 
HETATM   33  N4  UNL     1     -10.174   9.567  16.899  1.00  0.00    -0.353 N 
HETATM   34  C33 UNL     1     -11.213  10.273  17.461  1.00  0.00     0.046 A 
HETATM   35  H30 UNL     1      -9.207   9.664  17.196  1.00  0.00     0.166 HD
HETATM   36  C34 UNL     1     -11.197  11.199  18.505  1.00  0.00     0.030 A 
HETATM   37  C35 UNL     1     -12.417  11.770  18.870  1.00  0.00     0.005 A 
HETATM   38  C36 UNL     1     -13.606  11.415  18.233  1.00  0.00     0.038 A 
HETATM   39  C37 UNL     1     -13.617  10.476  17.191  1.00  0.00     0.081 A 
HETATM   40  C10 UNL     1      -8.551   7.660  15.139  1.00  0.00     0.045 A 
BRANCH  24  41
HETATM   41  C2  UNL     1      -8.040   5.093  12.347  1.00  0.00     0.036 C 
HETATM   42  C1  UNL     1      -8.289   3.640  12.733  1.00  0.00     0.010 C 
ENDBRANCH  24  41
BRANCH  39  43
HETATM   43  O4  UNL     1     -14.740  10.059  16.525  1.00  0.00    -0.355 OA
HETATM   44  C38 UNL     1     -15.287  10.936  15.542  1.00  0.00     0.210 C 
ENDBRANCH  39  43
ENDBRANCH   1  23
BRANCH  21  45
HETATM   45  O3  UNL     1      -6.390   8.784  15.458  1.00  0.00    -0.390 OA
HETATM   46  H28 UNL     1      -5.811   9.401  15.951  1.00  0.00     0.210 HD
ENDBRANCH  21  45
BRANCH  16  47
HETATM   47  C26 UNL     1      -2.595  12.072  16.046  1.00  0.00     0.198 C 
HETATM   48  O1  UNL     1      -2.189  11.723  17.193  1.00  0.00    -0.645 OA
HETATM   49  O2  UNL     1      -2.479  13.164  15.431  1.00  0.00    -0.645 OA
ENDBRANCH  16  47
TORSDOF 6
ENDMDL
