MODEL 1
REMARK minimizedAffinity -9.73065472
REMARK CNNscore 0.614696741
REMARK CNNaffinity 7.15462637
REMARK  7 active torsions:
REMARK  status: ('A' for Active; 'I' for Inactive)
REMARK    1  A    between atoms: C2_2  and  C30_32 
REMARK    2  A    between atoms: C3_3  and  C4_4 
REMARK    3  A    between atoms: C4_4  and  O1_5 
REMARK    4  A    between atoms: C4_4  and  C5_6 
REMARK    5  A    between atoms: C5_6  and  C6_7 
REMARK    6  A    between atoms: C6_7  and  C8_9 
REMARK    7  A    between atoms: C30_32  and  O3_33 
ROOT
HETATM    1  C8  UNL     1      -3.862   6.102  13.915  1.00  0.00    -0.002 C 
HETATM    2  C9  UNL     1      -3.611   4.957  12.925  1.00  0.00     0.006 C 
HETATM    3  C10 UNL     1      -2.171   4.570  13.193  1.00  0.00     0.011 C 
HETATM    4  C11 UNL     1      -1.409   5.911  13.243  1.00  0.00    -0.032 C 
HETATM    5  C12 UNL     1      -0.106   5.680  14.034  1.00  0.00     0.016 C 
HETATM    6  C13 UNL     1      -1.083   6.458  11.796  1.00  0.00     0.004 C 
HETATM    7  C14 UNL     1      -0.335   5.534  10.822  1.00  0.00     0.007 C 
HETATM    8  C15 UNL     1       1.183   5.514  10.892  1.00  0.00     0.007 C 
HETATM    9  C16 UNL     1       1.910   6.796  11.339  1.00  0.00     0.010 C 
HETATM   10  C17 UNL     1       3.166   7.147  10.469  1.00  0.00     0.018 C 
HETATM   11  C18 UNL     1       2.821   7.458   9.002  1.00  0.00     0.023 C 
HETATM   12  C19 UNL     1       4.201   6.009  10.534  1.00  0.00     0.023 C 
HETATM   13  C20 UNL     1       3.850   8.397  11.043  1.00  0.00     0.135 C 
HETATM   14  O2  UNL     1       4.846   8.899  10.516  1.00  0.00    -0.297 OA
HETATM   15  C21 UNL     1       3.322   8.944  12.343  1.00  0.00     0.080 C 
HETATM   16  C22 UNL     1       1.821   9.171  12.273  1.00  0.00     0.018 C 
HETATM   17  C23 UNL     1       1.054   8.036  11.584  1.00  0.00    -0.026 A 
HETATM   18  C24 UNL     1       0.016   8.478  10.572  1.00  0.00     0.021 A 
HETATM   19  C25 UNL     1      -0.451   7.854  11.871  1.00  0.00    -0.027 A 
HETATM   20  C26 UNL     1      -1.133   8.774  12.872  1.00  0.00     0.011 C 
HETATM   21  C27 UNL     1      -2.524   8.266  13.247  1.00  0.00     0.011 C 
HETATM   22  C28 UNL     1      -2.475   6.888  13.963  1.00  0.00    -0.032 C 
HETATM   23  C29 UNL     1      -2.134   7.128  15.457  1.00  0.00     0.016 C 
ENDROOT
BRANCH   1  24
HETATM   24  C6  UNL     1      -5.187   6.888  13.638  1.00  0.00    -0.011 C 
HETATM   25  C7  UNL     1      -4.893   8.290  13.091  1.00  0.00     0.010 C 
BRANCH  24  26
HETATM   26  C5  UNL     1      -6.063   6.995  14.922  1.00  0.00     0.040 C 
BRANCH  26  27
HETATM   27  C4  UNL     1      -7.351   6.151  14.920  1.00  0.00     0.141 C 
BRANCH  27  28
HETATM   28  C3  UNL     1      -7.094   4.796  14.309  1.00  0.00     0.009 C 
HETATM   29  C2  UNL     1      -7.504   4.320  13.114  1.00  0.00    -0.062 C 
HETATM   30  C1  UNL     1      -8.333   5.085  12.115  1.00  0.00     0.045 C 
BRANCH  29  31
HETATM   31  C30 UNL     1      -7.147   2.922  12.684  1.00  0.00     0.198 C 
BRANCH  31  32
HETATM   32  O3  UNL     1      -8.320   2.124  12.712  1.00  0.00    -0.397 OA
HETATM   33  H48 UNL     1      -8.063   1.236  12.409  1.00  0.00     0.209 HD
ENDBRANCH  31  32
ENDBRANCH  29  31
ENDBRANCH  27  28
BRANCH  27  34
HETATM   34  O1  UNL     1      -8.347   6.821  14.151  1.00  0.00    -0.392 OA
HETATM   35  H6  UNL     1      -8.627   6.233  13.426  1.00  0.00     0.210 HD
ENDBRANCH  27  34
ENDBRANCH  26  27
ENDBRANCH  24  26
ENDBRANCH   1  24
TORSDOF 7
ENDMDL
