MODEL 1
REMARK minimizedAffinity -7.20984697
REMARK CNNscore 0.307256877
REMARK CNNaffinity 6.69976425
REMARK  7 active torsions:
REMARK  status: ('A' for Active; 'I' for Inactive)
REMARK    1  A    between atoms: C2_2  and  C3_3 
REMARK    2  A    between atoms: C5_5  and  N1_6 
REMARK    3  A    between atoms: C5_5  and  C35_45 
REMARK       I    between atoms: N1_6  and  C6_7 
REMARK    4  A    between atoms: C6_7  and  C7_9 
REMARK    5  A    between atoms: C12_16  and  C13_17 
REMARK       I    between atoms: C35_45  and  N5_47 
REMARK    6  A    between atoms: N5_47  and  S1_48 
REMARK    7  A    between atoms: S1_48  and  C36_51 
ROOT
HETATM    1  C7  UNL     1     -11.496  15.788   1.488  1.00  0.00     0.181 C 
HETATM    2  C8  UNL     1     -10.396  15.763   0.425  1.00  0.00     0.069 C 
HETATM    3  C9  UNL     1      -9.327  14.827   0.992  1.00  0.00     0.154 C 
HETATM    4  C10 UNL     1      -9.739  14.535   2.441  1.00  0.00     0.159 C 
HETATM    5  N2  UNL     1     -10.815  15.501   2.752  1.00  0.00    -0.334 N 
HETATM    6  C11 UNL     1     -10.699  16.255   3.901  1.00  0.00     0.244 C 
HETATM    7  O2  UNL     1      -9.718  15.981   4.627  1.00  0.00    -0.271 OA
HETATM    8  C12 UNL     1     -11.766  17.286   4.500  1.00  0.00     0.186 C 
HETATM    9  N3  UNL     1     -10.957  18.126   5.409  1.00  0.00    -0.323 N 
HETATM   10  C17 UNL     1     -10.554  17.777   6.656  1.00  0.00     0.361 C 
HETATM   11  O3  UNL     1     -10.948  16.830   7.314  1.00  0.00    -0.239 OA
HETATM   12  O4  UNL     1      -9.599  18.671   7.002  1.00  0.00    -0.303 OA
HETATM   13  C18 UNL     1      -8.593  18.326   7.968  1.00  0.00     0.189 C 
HETATM   14  C19 UNL     1      -7.209  18.384   7.232  1.00  0.00    -0.025 C 
HETATM   15  C20 UNL     1      -7.133  19.716   6.445  1.00  0.00     0.017 C 
HETATM   16  C21 UNL     1      -7.193  17.199   6.251  1.00  0.00     0.017 C 
HETATM   17  C22 UNL     1      -6.036  18.272   8.245  1.00  0.00     0.011 C 
HETATM   18  C23 UNL     1      -4.600  18.594   7.764  1.00  0.00     0.001 C 
HETATM   19  C24 UNL     1      -3.951  17.610   6.772  1.00  0.00     0.005 C 
HETATM   20  C25 UNL     1      -3.826  18.149   5.325  1.00  0.00     0.039 C 
HETATM   21  C26 UNL     1      -3.541  17.067   4.304  1.00  0.00    -0.050 A 
HETATM   22  C27 UNL     1      -2.356  16.322   4.396  1.00  0.00     0.007 A 
HETATM   23  C28 UNL     1      -2.081  15.258   3.522  1.00  0.00     0.001 A 
HETATM   24  C29 UNL     1      -2.998  14.903   2.530  1.00  0.00     0.009 A 
HETATM   25  C30 UNL     1      -4.162  15.645   2.417  1.00  0.00    -0.032 A 
HETATM   26  C31 UNL     1      -4.420  16.734   3.268  1.00  0.00    -0.026 A 
HETATM   27  C32 UNL     1      -5.714  17.372   2.851  1.00  0.00     0.168 C 
HETATM   28  N4  UNL     1      -6.271  16.445   1.877  1.00  0.00    -0.320 N 
HETATM   29  C33 UNL     1      -5.316  15.419   1.487  1.00  0.00     0.167 C 
HETATM   30  C34 UNL     1      -7.617  16.409   1.617  1.00  0.00     0.363 C 
HETATM   31  O5  UNL     1      -8.410  17.250   2.026  1.00  0.00    -0.238 OA
HETATM   32  O6  UNL     1      -7.971  15.305   0.900  1.00  0.00    -0.297 OA
HETATM   33  H24 UNL     1     -10.303  18.767   4.992  1.00  0.00     0.165 HD
ENDROOT
BRANCH   1  34
HETATM   34  C6  UNL     1     -12.596  14.737   1.219  1.00  0.00     0.241 C 
HETATM   35  N1  UNL     1     -12.507  14.180  -0.037  1.00  0.00    -0.341 N 
HETATM   36  H7  UNL     1     -11.932  14.709  -0.684  1.00  0.00     0.163 HD
HETATM   37  O1  UNL     1     -13.374  14.369   2.090  1.00  0.00    -0.271 OA
BRANCH  35  38
HETATM   38  C5  UNL     1     -13.309  13.112  -0.609  1.00  0.00     0.122 A 
HETATM   39  C3  UNL     1     -13.402  11.778   0.134  1.00  0.00     0.048 A 
HETATM   40  C4  UNL     1     -14.612  12.667   0.030  1.00  0.00     0.053 A 
BRANCH  39  41
HETATM   41  C2  UNL     1     -13.373  10.505  -0.593  1.00  0.00    -0.029 C 
HETATM   42  C1  UNL     1     -13.455   9.294  -0.032  1.00  0.00     0.007 C 
ENDBRANCH  39  41
BRANCH  38  43
HETATM   43  C35 UNL     1     -13.266  13.087  -2.126  1.00  0.00     0.260 C 
HETATM   44  O7  UNL     1     -14.273  13.283  -2.793  1.00  0.00    -0.270 OA
HETATM   45  N5  UNL     1     -11.982  12.903  -2.638  1.00  0.00    -0.252 N 
HETATM   46  H48 UNL     1     -11.261  12.536  -2.024  1.00  0.00     0.181 HD
BRANCH  45  47
HETATM   47  S1  UNL     1     -11.602  12.741  -4.241  1.00  0.00     0.237 S 
HETATM   48  O8  UNL     1     -10.251  12.243  -4.350  1.00  0.00    -0.205 OA
HETATM   49  O9  UNL     1     -11.971  14.017  -4.823  1.00  0.00    -0.205 OA
BRANCH  47  50
HETATM   50  C36 UNL     1     -12.756  11.531  -4.941  1.00  0.00     0.130 A 
HETATM   51  C37 UNL     1     -12.174  10.665  -6.025  1.00  0.00     0.023 A 
HETATM   52  C38 UNL     1     -12.427  10.093  -4.656  1.00  0.00     0.023 A 
ENDBRANCH  47  50
ENDBRANCH  45  47
ENDBRANCH  38  43
ENDBRANCH  35  38
ENDBRANCH   1  34
BRANCH   8  53
HETATM   53  C13 UNL     1     -12.703  18.265   3.717  1.00  0.00    -0.022 C 
HETATM   54  C14 UNL     1     -14.004  17.587   3.256  1.00  0.00     0.017 C 
HETATM   55  C15 UNL     1     -11.979  19.007   2.581  1.00  0.00     0.017 C 
HETATM   56  C16 UNL     1     -13.225  19.378   4.693  1.00  0.00     0.017 C 
ENDBRANCH   8  53
TORSDOF 7
ENDMDL
