MODEL 1
REMARK minimizedAffinity -9.08862972
REMARK CNNscore 0.554273307
REMARK CNNaffinity 7.25757647
REMARK  5 active torsions:
REMARK  status: ('A' for Active; 'I' for Inactive)
REMARK    1  A    between atoms: C11_11  and  O1_12 
REMARK    2  A    between atoms: C14_15  and  C15_16 
REMARK    3  A    between atoms: C17_18  and  C18_19 
REMARK    4  A    between atoms: C26_31  and  O6_32 
REMARK    5  A    between atoms: C36_44  and  O9_45 
ROOT
HETATM    1  C1  UNL     1      -4.005   1.366  11.324  1.00  0.00     0.043 C 
HETATM    2  C2  UNL     1      -3.895   2.855  11.147  1.00  0.00    -0.087 C 
HETATM    3  C3  UNL     1      -2.741   3.509  10.898  1.00  0.00    -0.022 C 
HETATM    4  C4  UNL     1      -1.345   2.947  10.833  1.00  0.00     0.059 C 
HETATM    5  C5  UNL     1      -0.326   3.721  11.693  1.00  0.00     0.131 C 
HETATM    6  C6  UNL     1      -0.687   3.764  13.183  1.00  0.00     0.065 C 
HETATM    7  C7  UNL     1      -0.033   4.950  13.900  1.00  0.00     0.139 C 
HETATM    8  C8  UNL     1       1.243   5.375  13.174  1.00  0.00     0.101 C 
HETATM    9  C9  UNL     1       0.976   5.724  11.690  1.00  0.00     0.170 C 
HETATM   10  C10 UNL     1       0.750   7.237  11.501  1.00  0.00     0.100 C 
HETATM   11  C11 UNL     1       2.053   7.918  11.112  1.00  0.00     0.129 C 
HETATM   12  C12 UNL     1       2.581   7.363   9.770  1.00  0.00     0.044 C 
HETATM   13  C13 UNL     1       2.090   8.154   8.551  1.00  0.00     0.015 C 
HETATM   14  C14 UNL     1       2.195   5.865   9.639  1.00  0.00     0.159 C 
HETATM   15  O2  UNL     1       2.139   5.300  10.956  1.00  0.00    -0.345 OA
HETATM   16  O3  UNL     1      -0.186   5.051  11.190  1.00  0.00    -0.349 OA
HETATM   17  O4  UNL     1      -0.968   6.051  13.940  1.00  0.00    -0.315 OA
HETATM   18  C21 UNL     1      -0.798   6.944  14.961  1.00  0.00     0.270 C 
HETATM   19  O5  UNL     1      -0.002   6.793  15.881  1.00  0.00    -0.264 OA
HETATM   20  C22 UNL     1      -1.659   8.189  14.727  1.00  0.00     0.150 C 
HETATM   21  C23 UNL     1      -0.932   9.383  15.317  1.00  0.00    -0.004 C 
HETATM   22  C24 UNL     1      -1.500  10.312  16.105  1.00  0.00    -0.056 C 
HETATM   23  C25 UNL     1      -0.690  11.416  16.729  1.00  0.00     0.046 C 
HETATM   24  C26 UNL     1      -2.959  10.256  16.457  1.00  0.00     0.179 C 
HETATM   25  C27 UNL     1      -3.798   9.318  15.578  1.00  0.00     0.205 C 
HETATM   26  O7  UNL     1      -4.119   9.915  14.309  1.00  0.00    -0.306 OA
HETATM   27  C28 UNL     1      -4.428   8.904  13.447  1.00  0.00     0.293 C 
HETATM   28  O8  UNL     1      -4.915   9.036  12.342  1.00  0.00    -0.259 OA
HETATM   29  C29 UNL     1      -4.030   7.622  14.094  1.00  0.00     0.055 C 
HETATM   30  C30 UNL     1      -4.545   6.469  13.641  1.00  0.00     0.016 C 
HETATM   31  C31 UNL     1      -4.271   5.155  14.172  1.00  0.00    -0.003 C 
HETATM   32  C32 UNL     1      -4.812   4.004  13.741  1.00  0.00    -0.022 C 
HETATM   33  C33 UNL     1      -5.833   3.797  12.642  1.00  0.00     0.008 C 
HETATM   34  C34 UNL     1      -6.759   2.623  12.990  1.00  0.00     0.014 C 
HETATM   35  C35 UNL     1      -5.196   3.641  11.235  1.00  0.00     0.041 C 
HETATM   36  C36 UNL     1      -3.120   7.994  15.231  1.00  0.00     0.136 C 
ENDROOT
BRANCH  11  37
HETATM   37  O1  UNL     1       1.858   9.326  11.076  1.00  0.00    -0.395 OA
HETATM   38  H16 UNL     1       2.725   9.742  10.927  1.00  0.00     0.210 HD
ENDBRANCH  11  37
BRANCH  14  39
HETATM   39  C15 UNL     1       3.077   4.947   8.789  1.00  0.00    -0.058 C 
HETATM   40  C16 UNL     1       3.890   3.989   9.631  1.00  0.00     0.046 C 
HETATM   41  C17 UNL     1       3.107   4.948   7.438  1.00  0.00    -0.018 C 
BRANCH  41  42
HETATM   42  C18 UNL     1       3.940   4.080   6.521  1.00  0.00     0.000 C 
HETATM   43  C19 UNL     1       4.775   3.102   7.348  1.00  0.00     0.013 C 
HETATM   44  C20 UNL     1       3.035   3.318   5.551  1.00  0.00     0.013 C 
ENDBRANCH  41  42
ENDBRANCH  14  39
BRANCH  36  45
HETATM   45  O9  UNL     1      -3.208   7.114  16.346  1.00  0.00    -0.381 OA
HETATM   46  H50 UNL     1      -4.138   6.843  16.459  1.00  0.00     0.211 HD
ENDBRANCH  36  45
BRANCH  24  47
HETATM   47  O6  UNL     1      -3.514  11.569  16.386  1.00  0.00    -0.388 OA
HETATM   48  H39 UNL     1      -3.605  11.775  15.435  1.00  0.00     0.210 HD
ENDBRANCH  24  47
TORSDOF 5
ENDMDL
