MODEL 1
REMARK minimizedAffinity -8.62125015
REMARK CNNscore 0.364963889
REMARK CNNaffinity 6.69297409
REMARK  9 active torsions:
REMARK  status: ('A' for Active; 'I' for Inactive)
REMARK    1  A    between atoms: C3_3  and  O1_4 
REMARK    2  A    between atoms: N1_14  and  O2_16 
REMARK    3  A    between atoms: O2_16  and  C13_17 
REMARK    4  A    between atoms: C13_17  and  C14_18 
REMARK       I    between atoms: C14_18  and  N2_20 
REMARK    5  A    between atoms: N2_20  and  C15_21 
REMARK    6  A    between atoms: C15_21  and  C16_22 
REMARK    7  A    between atoms: C15_21  and  C18_26 
REMARK    8  A    between atoms: C16_22  and  C17_23 
REMARK    9  A    between atoms: C17_23  and  O5_25 
ROOT
HETATM    1  C1  UNL     1      -2.637  48.493 -26.390  1.00  0.00     0.015 C 
HETATM    2  C2  UNL     1      -2.746  49.535 -25.799  1.00  0.00    -0.078 C 
HETATM    3  C3  UNL     1      -2.864  50.835 -25.115  1.00  0.00     0.128 C 
HETATM    4  C4  UNL     1      -1.517  51.333 -24.620  1.00  0.00     0.052 C 
HETATM    5  C5  UNL     1      -1.894  52.441 -23.644  1.00  0.00     0.010 C 
HETATM    6  C6  UNL     1      -3.176  51.968 -22.920  1.00  0.00     0.002 C 
HETATM    7  C7  UNL     1      -2.856  51.515 -21.469  1.00  0.00    -0.004 C 
HETATM    8  C8  UNL     1      -4.116  51.432 -20.573  1.00  0.00     0.010 C 
HETATM    9  C9  UNL     1      -4.057  50.333 -19.504  1.00  0.00     0.035 C 
HETATM   10  C10 UNL     1      -2.664  50.219 -18.949  1.00  0.00    -0.069 C 
HETATM   11  C11 UNL     1      -2.399  50.492 -17.658  1.00  0.00     0.030 C 
HETATM   12  C12 UNL     1      -1.002  50.499 -17.140  1.00  0.00     0.032 C 
HETATM   13  N1  UNL     1      -0.818  50.463 -15.849  1.00  0.00    -0.271 N 
ATOM     14  H1  UNL     1      -1.569  50.439 -15.159  1.00  0.00     0.194 HD
HETATM   15  C25 UNL     1       0.142  50.531 -18.142  1.00  0.00     0.060 C 
HETATM   16  C26 UNL     1      -0.323  50.704 -19.588  1.00  0.00     0.020 C 
HETATM   17  C27 UNL     1      -1.576  49.851 -19.952  1.00  0.00    -0.016 C 
HETATM   18  C28 UNL     1      -1.207  48.353 -19.823  1.00  0.00     0.020 C 
HETATM   19  C29 UNL     1      -2.019  50.215 -21.430  1.00  0.00     0.002 C 
HETATM   20  C30 UNL     1      -2.689  49.087 -22.252  1.00  0.00     0.007 C 
HETATM   21  C31 UNL     1      -3.893  49.504 -23.095  1.00  0.00     0.014 C 
HETATM   22  C32 UNL     1      -3.791  50.856 -23.847  1.00  0.00     0.003 C 
HETATM   23  C33 UNL     1      -5.234  51.255 -24.251  1.00  0.00     0.020 C 
ENDROOT
BRANCH   3  24
HETATM   24  O1  UNL     1      -3.321  51.801 -26.074  1.00  0.00    -0.377 OA
HETATM   25  H2  UNL     1      -2.918  51.569 -26.929  1.00  0.00     0.211 HD
ENDBRANCH   3  24
BRANCH  13  26
HETATM   26  O2  UNL     1       0.551  50.461 -15.533  1.00  0.00    -0.271 OA
BRANCH  26  27
HETATM   27  C13 UNL     1       0.872  51.635 -14.791  1.00  0.00     0.303 C 
BRANCH  27  28
HETATM   28  C14 UNL     1       1.197  51.365 -13.324  1.00  0.00     0.244 C 
HETATM   29  O3  UNL     1       0.360  50.912 -12.547  1.00  0.00    -0.271 OA
HETATM   30  N2  UNL     1       2.487  51.682 -12.941  1.00  0.00    -0.354 N 
HETATM   31  H16 UNL     1       3.105  52.021 -13.678  1.00  0.00     0.162 HD
BRANCH  30  32
HETATM   32  C15 UNL     1       3.014  51.382 -11.604  1.00  0.00     0.098 C 
BRANCH  32  33
HETATM   33  C16 UNL     1       4.115  50.312 -11.682  1.00  0.00     0.135 C 
BRANCH  33  34
HETATM   34  C17 UNL     1       4.069  49.536 -12.966  1.00  0.00     0.141 C 
HETATM   35  O4  UNL     1       3.413  48.528 -13.172  1.00  0.00    -0.650 OA
BRANCH  34  36
HETATM   36  O5  UNL     1       4.814  50.097 -13.940  1.00  0.00    -0.776 OA
HETATM   37  H20 UNL     1       4.766  49.450 -14.674  1.00  0.00     0.167 HD
ENDBRANCH  34  36
ENDBRANCH  33  34
ENDBRANCH  32  33
BRANCH  32  38
HETATM   38  C18 UNL     1       3.487  52.691 -10.916  1.00  0.00     0.014 C 
HETATM   39  C19 UNL     1       2.326  53.704 -10.775  1.00  0.00     0.033 C 
HETATM   40  C20 UNL     1       2.405  54.515  -9.486  1.00  0.00     0.169 C 
HETATM   41  O6  UNL     1       3.751  54.906  -9.238  1.00  0.00    -0.381 OA
HETATM   42  C21 UNL     1       4.638  53.816  -8.939  1.00  0.00     0.054 C 
HETATM   43  C22 UNL     1       6.011  54.222  -9.500  1.00  0.00     0.045 C 
HETATM   44  C23 UNL     1       4.747  53.691  -7.415  1.00  0.00     0.045 C 
HETATM   45  C24 UNL     1       4.168  52.476  -9.554  1.00  0.00     0.044 C 
ENDBRANCH  32  38
ENDBRANCH  30  32
ENDBRANCH  27  28
ENDBRANCH  26  27
ENDBRANCH  13  26
TORSDOF 9
ENDMDL
