MODEL 1
REMARK minimizedAffinity -8.97139263
REMARK CNNscore 0.439552844
REMARK CNNaffinity 8.08712482
REMARK  14 active torsions:
REMARK  status: ('A' for Active; 'I' for Inactive)
REMARK    1  A    between atoms: C2_2  and  C3_3 
REMARK    2  A    between atoms: C4_4  and  C5_5 
REMARK    3  A    between atoms: C5_5  and  C6_6 
REMARK    4  A    between atoms: C6_6  and  O2_8 
REMARK    5  A    between atoms: C7_9  and  C8_10 
REMARK    6  A    between atoms: C8_10  and  O4_12 
REMARK    7  A    between atoms: C22_29  and  O8_30 
REMARK    8  A    between atoms: C28_36  and  C29_37 
REMARK    9  A    between atoms: C29_37  and  C31_39 
REMARK   10  A    between atoms: C37_46  and  C38_47 
REMARK   11  A    between atoms: C38_47  and  C39_48 
REMARK   12  A    between atoms: C39_48  and  C40_49 
REMARK   13  A    between atoms: C40_49  and  O9_50 
REMARK   14  A    between atoms: C42_53  and  O11_54 
ROOT
HETATM    1  C3  UNL     1      -7.666  46.724 -19.103  1.00  0.00     0.046 C 
HETATM    2  C4  UNL     1      -7.998  45.647 -17.980  1.00  0.00     0.044 C 
HETATM    3  C7  UNL     1      -7.513  46.032 -16.576  1.00  0.00     0.019 C 
HETATM    4  C10 UNL     1      -6.387  46.764 -16.409  1.00  0.00    -0.000 C 
HETATM    5  C11 UNL     1      -5.572  47.254 -17.623  1.00  0.00     0.012 C 
HETATM    6  C12 UNL     1      -4.582  48.366 -17.231  1.00  0.00     0.017 C 
HETATM    7  C13 UNL     1      -3.462  47.670 -16.471  1.00  0.00     0.002 C 
HETATM    8  C14 UNL     1      -3.407  46.243 -17.004  1.00  0.00     0.010 C 
HETATM    9  C15 UNL     1      -4.598  46.064 -17.982  1.00  0.00     0.025 C 
HETATM   10  C16 UNL     1      -4.221  45.841 -19.418  1.00  0.00     0.003 C 
HETATM   11  C17 UNL     1      -3.069  46.138 -20.030  1.00  0.00     0.131 C 
HETATM   12  O5  UNL     1      -2.901  45.933 -21.379  1.00  0.00    -0.361 OA
HETATM   13  C18 UNL     1      -2.813  47.189 -22.091  1.00  0.00     0.210 C 
HETATM   14  C19 UNL     1      -4.212  47.823 -22.220  1.00  0.00     0.191 C 
HETATM   15  O6  UNL     1      -4.656  48.154 -20.898  1.00  0.00    -0.347 OA
HETATM   16  C20 UNL     1      -5.987  48.616 -20.823  1.00  0.00     0.297 C 
HETATM   17  O7  UNL     1      -6.284  48.879 -19.467  1.00  0.00    -0.351 OA
HETATM   18  C21 UNL     1      -6.674  47.812 -18.587  1.00  0.00     0.146 C 
HETATM   19  C22 UNL     1      -6.123  49.925 -21.670  1.00  0.00     0.136 C 
HETATM   20  C23 UNL     1      -5.224  51.072 -21.158  1.00  0.00     0.050 C 
HETATM   21  C24 UNL     1      -3.718  50.813 -21.302  1.00  0.00     0.041 C 
HETATM   22  C25 UNL     1      -3.351  50.198 -22.632  1.00  0.00    -0.027 C 
HETATM   23  C26 UNL     1      -2.302  50.562 -23.377  1.00  0.00     0.001 A 
HETATM   24  C27 UNL     1      -1.249  51.532 -23.146  1.00  0.00     0.039 A 
HETATM   25  C28 UNL     1      -0.445  51.484 -24.231  1.00  0.00     0.014 A 
HETATM   26  N1  UNL     1      -0.926  50.545 -25.137  1.00  0.00    -0.357 N 
HETATM   27  C36 UNL     1      -2.076  49.959 -24.681  1.00  0.00     0.072 A 
HETATM   28  C37 UNL     1      -2.929  49.073 -25.200  1.00  0.00     0.075 C 
HETATM   29  O10 UNL     1      -4.042  48.632 -24.509  1.00  0.00    -0.332 OA
HETATM   30  C41 UNL     1      -4.269  49.075 -23.145  1.00  0.00     0.148 C 
HETATM   31  C42 UNL     1      -5.729  49.581 -23.116  1.00  0.00     0.199 C 
HETATM   32  H46 UNL     1      -0.556  50.422 -26.067  1.00  0.00     0.166 HD
ENDROOT
BRANCH  25  33
HETATM   33  C29 UNL     1       0.775  52.331 -24.479  1.00  0.00     0.035 C 
HETATM   34  C30 UNL     1       0.640  53.680 -23.764  1.00  0.00     0.017 C 
BRANCH  33  35
HETATM   35  C31 UNL     1       1.182  52.517 -25.958  1.00  0.00    -0.005 C 
HETATM   36  C32 UNL     1       2.147  51.467 -26.514  1.00  0.00     0.005 C 
HETATM   37  C33 UNL     1       2.166  51.766 -28.006  1.00  0.00     0.000 C 
HETATM   38  C34 UNL     1       0.790  52.340 -28.334  1.00  0.00     0.000 C 
HETATM   39  C35 UNL     1       0.061  52.503 -27.000  1.00  0.00     0.005 C 
ENDBRANCH  33  35
ENDBRANCH  25  33
BRANCH  28  40
HETATM   40  C38 UNL     1      -2.789  48.482 -26.577  1.00  0.00     0.069 C 
BRANCH  40  41
HETATM   41  C39 UNL     1      -3.842  49.063 -27.528  1.00  0.00     0.033 C 
BRANCH  41  42
HETATM   42  C40 UNL     1      -3.374  50.366 -28.157  1.00  0.00     0.164 C 
BRANCH  42  43
HETATM   43  O9  UNL     1      -3.753  50.414 -29.527  1.00  0.00    -0.401 OA
HETATM   44  H53 UNL     1      -3.216  49.755 -29.998  1.00  0.00     0.209 HD
ENDBRANCH  42  43
ENDBRANCH  41  42
ENDBRANCH  40  41
ENDBRANCH  28  40
BRANCH  31  45
HETATM   45  O11 UNL     1      -5.935  50.731 -23.966  1.00  0.00    -0.389 OA
HETATM   46  H55 UNL     1      -5.351  50.606 -24.741  1.00  0.00     0.210 HD
ENDBRANCH  31  45
BRANCH  19  47
HETATM   47  O8  UNL     1      -7.483  50.388 -21.683  1.00  0.00    -0.382 OA
HETATM   48  H27 UNL     1      -7.531  51.025 -22.427  1.00  0.00     0.210 HD
ENDBRANCH  19  47
BRANCH   1  49
HETATM   49  C2  UNL     1      -8.891  47.398 -19.704  1.00  0.00    -0.029 C 
HETATM   50  C1  UNL     1      -9.422  48.548 -19.278  1.00  0.00     0.007 C 
ENDBRANCH   1  49
BRANCH   2  51
HETATM   51  C5  UNL     1      -9.405  45.014 -18.121  1.00  0.00     0.120 C 
BRANCH  51  52
HETATM   52  C6  UNL     1     -10.507  45.511 -17.222  1.00  0.00     0.140 C 
HETATM   53  O1  UNL     1     -10.902  46.665 -17.166  1.00  0.00    -0.650 OA
BRANCH  52  54
HETATM   54  O2  UNL     1     -11.092  44.572 -16.462  1.00  0.00    -0.776 OA
HETATM   55  H8  UNL     1     -11.785  45.066 -15.976  1.00  0.00     0.167 HD
ENDBRANCH  52  54
ENDBRANCH  51  52
ENDBRANCH   2  51
BRANCH   3  56
HETATM   56  C8  UNL     1      -8.205  45.507 -15.368  1.00  0.00     0.289 C 
HETATM   57  O3  UNL     1      -8.307  44.317 -15.111  1.00  0.00    -0.260 OA
BRANCH  56  58
HETATM   58  O4  UNL     1      -8.720  46.525 -14.633  1.00  0.00    -0.323 OA
HETATM   59  C9  UNL     1      -9.580  46.121 -13.569  1.00  0.00     0.213 C 
ENDBRANCH  56  58
ENDBRANCH   3  56
TORSDOF 14
ENDMDL
