MODEL 1
REMARK minimizedAffinity -8.93348122
REMARK CNNscore 0.404565811
REMARK CNNaffinity 6.9891572
REMARK  11 active torsions:
REMARK  status: ('A' for Active; 'I' for Inactive)
REMARK    1  A    between atoms: O1_2  and  C2_3 
REMARK    2  A    between atoms: C16_18  and  C17_19 
REMARK    3  A    between atoms: C17_19  and  C19_21 
REMARK    4  A    between atoms: C23_25  and  C24_26 
REMARK    5  A    between atoms: C24_26  and  O3_27 
REMARK    6  A    between atoms: O3_27  and  C25_28 
REMARK    7  A    between atoms: C26_30  and  C27_31 
REMARK    8  A    between atoms: C27_31  and  O5_32 
REMARK    9  A    between atoms: C28_33  and  O6_34 
REMARK   10  A    between atoms: C29_35  and  O7_36 
REMARK   11  A    between atoms: C30_37  and  O8_38 
ROOT
HETATM    1  C19 UNL     1      -0.615  50.698 -18.207  1.00  0.00     0.140 C 
HETATM    2  C20 UNL     1      -0.557  49.425 -19.050  1.00  0.00     0.067 C 
HETATM    3  C21 UNL     1      -1.460  49.612 -20.244  1.00  0.00    -0.067 C 
HETATM    4  C22 UNL     1      -2.197  48.383 -20.698  1.00  0.00     0.044 C 
HETATM    5  C23 UNL     1      -1.573  50.839 -20.803  1.00  0.00     0.043 C 
HETATM    6  C31 UNL     1      -0.733  51.956 -20.277  1.00  0.00     0.292 C 
HETATM    7  O9  UNL     1      -0.480  52.944 -20.952  1.00  0.00    -0.260 OA
HETATM    8  O10 UNL     1      -0.238  51.826 -19.021  1.00  0.00    -0.311 OA
ENDROOT
BRANCH   1   9
HETATM    9  C17 UNL     1       0.297  50.630 -16.953  1.00  0.00     0.016 C 
HETATM   10  C18 UNL     1       1.050  51.960 -16.749  1.00  0.00     0.013 C 
BRANCH   9  11
HETATM   11  C16 UNL     1      -0.430  50.263 -15.621  1.00  0.00     0.000 C 
HETATM   12  C14 UNL     1       0.462  50.055 -14.358  1.00  0.00    -0.036 C 
HETATM   13  C13 UNL     1       1.048  51.378 -13.842  1.00  0.00     0.010 C 
HETATM   14  C15 UNL     1       1.627  49.069 -14.632  1.00  0.00     0.016 C 
HETATM   15  C34 UNL     1      -0.511  49.403 -13.329  1.00  0.00     0.001 C 
HETATM   16  C12 UNL     1       1.437  51.277 -12.373  1.00  0.00     0.007 C 
HETATM   17  C11 UNL     1       0.223  51.065 -11.442  1.00  0.00     0.013 C 
HETATM   18  C9  UNL     1      -0.181  52.361 -10.613  1.00  0.00     0.048 C 
HETATM   19  C35 UNL     1      -0.958  50.268 -12.107  1.00  0.00     0.029 C 
HETATM   20  C4  UNL     1      -1.636  52.286 -10.150  1.00  0.00    -0.044 C 
HETATM   21  C8  UNL     1       0.751  52.459  -9.375  1.00  0.00     0.143 C 
HETATM   22  C10 UNL     1       0.003  53.689 -11.384  1.00  0.00     0.029 C 
HETATM   23  C3  UNL     1      -2.576  51.761 -10.952  1.00  0.00     0.013 C 
HETATM   24  C5  UNL     1      -2.018  52.839  -8.866  1.00  0.00     0.004 C 
HETATM   25  C2  UNL     1      -2.256  51.093 -12.257  1.00  0.00     0.149 C 
HETATM   26  C6  UNL     1      -1.138  53.349  -8.000  1.00  0.00    -0.019 C 
HETATM   27  C7  UNL     1       0.333  53.376  -8.235  1.00  0.00     0.106 C 
HETATM   28  O2  UNL     1       1.861  51.917  -9.336  1.00  0.00    -0.296 OA
HETATM   29  C33 UNL     1      -1.649  48.774 -14.169  1.00  0.00     0.006 C 
HETATM   30  C32 UNL     1      -1.297  49.003 -15.637  1.00  0.00     0.006 C 
BRANCH  25  31
HETATM   31  O1  UNL     1      -2.128  52.061 -13.287  1.00  0.00    -0.386 OA
HETATM   32  C1  UNL     1      -3.296  52.195 -14.087  1.00  0.00     0.202 C 
ENDBRANCH  25  31
ENDBRANCH   9  11
ENDBRANCH   1   9
BRANCH   5  33
HETATM   33  C24 UNL     1      -2.417  51.215 -21.997  1.00  0.00     0.216 C 
BRANCH  33  34
HETATM   34  O3  UNL     1      -1.643  51.335 -23.193  1.00  0.00    -0.354 OA
BRANCH  34  35
HETATM   35  C25 UNL     1      -2.287  52.087 -24.221  1.00  0.00     0.291 C 
HETATM   36  O4  UNL     1      -1.584  53.315 -24.421  1.00  0.00    -0.348 OA
HETATM   37  C26 UNL     1      -0.244  53.122 -24.924  1.00  0.00     0.179 C 
HETATM   38  C28 UNL     1      -0.234  52.341 -26.250  1.00  0.00     0.180 C 
HETATM   39  C29 UNL     1      -1.653  51.985 -26.684  1.00  0.00     0.183 C 
HETATM   40  C30 UNL     1      -2.406  51.290 -25.543  1.00  0.00     0.204 C 
BRANCH  37  41
HETATM   41  C27 UNL     1       0.386  54.511 -25.092  1.00  0.00     0.198 C 
BRANCH  41  42
HETATM   42  O5  UNL     1       0.187  55.012 -26.418  1.00  0.00    -0.398 OA
HETATM   43  H38 UNL     1       0.565  55.910 -26.428  1.00  0.00     0.209 HD
ENDBRANCH  41  42
ENDBRANCH  37  41
BRANCH  38  44
HETATM   44  O6  UNL     1       0.507  51.115 -26.077  1.00  0.00    -0.390 OA
HETATM   45  H40 UNL     1       0.313  50.595 -26.885  1.00  0.00     0.210 HD
ENDBRANCH  38  44
BRANCH  39  46
HETATM   46  O7  UNL     1      -1.592  51.096 -27.818  1.00  0.00    -0.390 OA
HETATM   47  H42 UNL     1      -2.490  50.711 -27.899  1.00  0.00     0.210 HD
ENDBRANCH  39  46
BRANCH  40  48
HETATM   48  O8  UNL     1      -3.781  51.136 -25.958  1.00  0.00    -0.388 OA
HETATM   49  H44 UNL     1      -4.165  52.028 -26.040  1.00  0.00     0.210 HD
ENDBRANCH  40  48
ENDBRANCH  34  35
ENDBRANCH  33  34
ENDBRANCH   5  33
TORSDOF 11
ENDMDL
