MODEL 1
REMARK minimizedAffinity -9.53883266
REMARK CNNscore 0.658752561
REMARK CNNaffinity 7.10591841
REMARK  7 active torsions:
REMARK  status: ('A' for Active; 'I' for Inactive)
REMARK    1  A    between atoms: C2_2  and  C4_4 
REMARK    2  A    between atoms: C4_4  and  O1_6 
REMARK    3  A    between atoms: C4_4  and  C6_7 
REMARK    4  A    between atoms: C7_9  and  C8_10 
REMARK    5  A    between atoms: C8_10  and  C9_11 
REMARK    6  A    between atoms: C12_14  and  O3_15 
REMARK    7  A    between atoms: C18_22  and  O5_23 
ROOT
HETATM    1  C9  UNL     1      -0.212   6.443  12.829  1.00  0.00     0.034 C 
HETATM    2  C10 UNL     1       0.870   5.969  13.851  1.00  0.00     0.012 C 
HETATM    3  C11 UNL     1       0.753   6.882  15.089  1.00  0.00     0.044 C 
HETATM    4  C12 UNL     1      -0.599   7.575  14.909  1.00  0.00     0.089 C 
HETATM    5  C13 UNL     1      -0.976   8.826  15.662  1.00  0.00    -0.037 C 
HETATM    6  C14 UNL     1      -0.118   9.514  16.429  1.00  0.00     0.057 C 
HETATM    7  C15 UNL     1      -0.464  10.852  16.957  1.00  0.00     0.154 C 
HETATM    8  O4  UNL     1       0.331  11.396  17.720  1.00  0.00    -0.293 OA
HETATM    9  C16 UNL     1      -1.755  11.514  16.471  1.00  0.00     0.071 C 
HETATM   10  C17 UNL     1      -2.163  12.662  17.413  1.00  0.00     0.045 C 
HETATM   11  C18 UNL     1      -2.842  12.199  18.708  1.00  0.00     0.119 C 
HETATM   12  C19 UNL     1      -2.832  10.689  18.915  1.00  0.00     0.032 C 
HETATM   13  C20 UNL     1      -3.299   9.888  17.691  1.00  0.00     0.013 C 
HETATM   14  C21 UNL     1      -2.883  10.470  16.295  1.00  0.00    -0.026 C 
HETATM   15  C22 UNL     1      -4.137  11.140  15.677  1.00  0.00     0.016 C 
HETATM   16  C23 UNL     1      -2.405   9.292  15.364  1.00  0.00     0.026 C 
HETATM   17  C24 UNL     1      -2.534   9.527  13.837  1.00  0.00     0.011 C 
HETATM   18  C25 UNL     1      -2.060   8.317  12.992  1.00  0.00     0.014 C 
HETATM   19  C26 UNL     1      -0.633   7.853  13.368  1.00  0.00    -0.002 C 
HETATM   20  C27 UNL     1       0.362   8.964  12.948  1.00  0.00     0.019 C 
ENDROOT
BRANCH   1  21
HETATM   21  C8  UNL     1       0.149   6.162  11.317  1.00  0.00     0.094 C 
HETATM   22  C28 UNL     1       0.202   7.452  10.436  1.00  0.00     0.045 C 
HETATM   23  C29 UNL     1       1.313   7.586   9.376  1.00  0.00    -0.014 C 
HETATM   24  C30 UNL     1       0.770   7.812   7.966  1.00  0.00     0.010 C 
HETATM   25  C31 UNL     1       2.330   6.456   9.423  1.00  0.00     0.030 C 
HETATM   26  C32 UNL     1       2.559   6.074  10.866  1.00  0.00     0.169 C 
HETATM   27  O6  UNL     1       1.402   5.445  11.385  1.00  0.00    -0.377 OA
BRANCH  21  28
HETATM   28  C7  UNL     1      -0.832   5.112  10.798  1.00  0.00     0.189 A 
HETATM   29  C6  UNL     1      -1.661   4.210  11.697  1.00  0.00     0.188 A 
HETATM   30  O2  UNL     1      -0.490   3.737  11.006  1.00  0.00    -0.369 OA
BRANCH  29  31
HETATM   31  C4  UNL     1      -2.966   3.554  11.280  1.00  0.00     0.086 C 
HETATM   32  C5  UNL     1      -2.922   2.083  11.732  1.00  0.00     0.049 C 
BRANCH  31  33
HETATM   33  C2  UNL     1      -4.184   4.298  11.918  1.00  0.00     0.014 C 
HETATM   34  C1  UNL     1      -3.835   4.996  13.240  1.00  0.00     0.012 C 
HETATM   35  C3  UNL     1      -5.387   3.376  12.170  1.00  0.00     0.012 C 
ENDBRANCH  31  33
BRANCH  31  36
HETATM   36  O1  UNL     1      -3.102   3.524   9.856  1.00  0.00    -0.387 OA
HETATM   37  H11 UNL     1      -3.147   4.438   9.535  1.00  0.00     0.210 HD
ENDBRANCH  31  36
ENDBRANCH  29  31
ENDBRANCH  21  28
ENDBRANCH   1  21
BRANCH   4  38
HETATM   38  O3  UNL     1      -1.586   6.592  15.269  1.00  0.00    -0.384 OA
HETATM   39  H19 UNL     1      -1.496   6.429  16.222  1.00  0.00     0.211 HD
ENDBRANCH   4  38
BRANCH  11  40
HETATM   40  O5  UNL     1      -4.194  12.655  18.700  1.00  0.00    -0.396 OA
HETATM   41  H25 UNL     1      -4.564  12.490  19.585  1.00  0.00     0.210 HD
ENDBRANCH  11  40
TORSDOF 7
ENDMDL
