MODEL 1
REMARK minimizedAffinity -8.7234869
REMARK CNNscore 0.866553187
REMARK CNNaffinity 6.86810637
REMARK  9 active torsions:
REMARK  status: ('A' for Active; 'I' for Inactive)
REMARK    1  A    between atoms: C2_2  and  C30_35 
REMARK    2  A    between atoms: C3_3  and  C4_4 
REMARK    3  A    between atoms: C4_4  and  O1_5 
REMARK    4  A    between atoms: C4_4  and  C5_6 
REMARK    5  A    between atoms: C5_6  and  C6_7 
REMARK    6  A    between atoms: C6_7  and  C8_9 
REMARK    7  A    between atoms: C10_11  and  O2_12 
REMARK    8  A    between atoms: C29_33  and  O5_34 
REMARK    9  A    between atoms: C30_35  and  O7_37 
ROOT
HETATM    1  C8  UNL     1      -1.396  52.649 -10.525  1.00  0.00     0.001 C 
HETATM    2  C9  UNL     1      -0.742  52.728 -11.931  1.00  0.00     0.038 C 
HETATM    3  C10 UNL     1       0.530  53.584 -11.784  1.00  0.00     0.132 C 
HETATM    4  C11 UNL     1       0.822  53.601 -10.257  1.00  0.00     0.017 C 
HETATM    5  C12 UNL     1       1.549  52.268  -9.879  1.00  0.00     0.023 C 
HETATM    6  C13 UNL     1       1.688  54.713  -9.650  1.00  0.00    -0.029 C 
HETATM    7  C14 UNL     1       1.590  55.014  -8.327  1.00  0.00     0.002 C 
HETATM    8  C15 UNL     1       0.471  54.371  -7.515  1.00  0.00     0.157 C 
HETATM    9  O3  UNL     1       0.387  54.556  -6.302  1.00  0.00    -0.293 OA
HETATM   10  C16 UNL     1      -0.590  53.512  -8.192  1.00  0.00     0.094 C 
HETATM   11  C17 UNL     1      -0.643  53.740  -9.701  1.00  0.00    -0.019 C 
HETATM   12  C18 UNL     1      -1.262  55.146  -9.956  1.00  0.00     0.017 C 
HETATM   13  C19 UNL     1       2.501  56.048  -7.634  1.00  0.00    -0.008 C 
HETATM   14  C20 UNL     1       1.698  57.374  -7.556  1.00  0.00     0.021 C 
HETATM   15  C21 UNL     1       2.948  55.699  -6.190  1.00  0.00     0.022 C 
HETATM   16  C22 UNL     1       3.642  54.351  -6.088  1.00  0.00     0.080 C 
HETATM   17  C23 UNL     1       4.469  54.045  -7.314  1.00  0.00     0.135 C 
HETATM   18  O4  UNL     1       4.763  52.878  -7.576  1.00  0.00    -0.297 OA
HETATM   19  C24 UNL     1       4.993  55.230  -8.142  1.00  0.00     0.018 C 
HETATM   20  C25 UNL     1       6.093  55.920  -7.291  1.00  0.00     0.023 C 
HETATM   21  C26 UNL     1       5.733  54.669  -9.373  1.00  0.00     0.023 C 
HETATM   22  C27 UNL     1       3.835  56.272  -8.458  1.00  0.00     0.016 C 
HETATM   23  C28 UNL     1       3.501  56.522  -9.941  1.00  0.00     0.043 C 
HETATM   24  C29 UNL     1       2.593  55.476 -10.590  1.00  0.00     0.149 C 
ENDROOT
BRANCH   1  25
HETATM   25  C6  UNL     1      -2.950  52.531 -10.572  1.00  0.00    -0.011 C 
HETATM   26  C7  UNL     1      -3.743  53.821 -10.328  1.00  0.00     0.010 C 
BRANCH  25  27
HETATM   27  C5  UNL     1      -3.456  51.367  -9.681  1.00  0.00     0.040 C 
BRANCH  27  28
HETATM   28  C4  UNL     1      -4.063  50.194 -10.467  1.00  0.00     0.142 C 
BRANCH  28  29
HETATM   29  C3  UNL     1      -5.568  50.210 -10.415  1.00  0.00     0.018 C 
HETATM   30  C2  UNL     1      -6.446  49.241 -10.754  1.00  0.00     0.010 C 
HETATM   31  C1  UNL     1      -6.101  47.909 -11.352  1.00  0.00     0.055 C 
BRANCH  30  32
HETATM   32  C30 UNL     1      -7.882  49.556 -10.544  1.00  0.00     0.171 C 
HETATM   33  O6  UNL     1      -8.813  49.209 -11.249  1.00  0.00    -0.646 OA
BRANCH  32  34
HETATM   34  O7  UNL     1      -8.086  50.316  -9.456  1.00  0.00    -0.773 OA
HETATM   35  H44 UNL     1      -9.058  50.442  -9.444  1.00  0.00     0.167 HD
ENDBRANCH  32  34
ENDBRANCH  30  32
ENDBRANCH  28  29
BRANCH  28  36
HETATM   36  O1  UNL     1      -3.627  50.220 -11.817  1.00  0.00    -0.392 OA
HETATM   37  H6  UNL     1      -4.068  49.482 -12.272  1.00  0.00     0.210 HD
ENDBRANCH  28  36
ENDBRANCH  27  28
ENDBRANCH  25  27
ENDBRANCH   1  25
BRANCH   3  38
HETATM   38  O2  UNL     1       1.565  53.020 -12.573  1.00  0.00    -0.394 OA
HETATM   39  H17 UNL     1       2.401  53.432 -12.267  1.00  0.00     0.210 HD
ENDBRANCH   3  38
BRANCH  24  40
HETATM   40  O5  UNL     1       3.356  54.557 -11.359  1.00  0.00    -0.391 OA
HETATM   41  H43 UNL     1       4.006  55.067 -11.876  1.00  0.00     0.210 HD
ENDBRANCH  24  40
TORSDOF 9
ENDMDL
