MODEL 1
REMARK minimizedAffinity -9.62102032
REMARK  8 active torsions:
REMARK  status: ('A' for Active; 'I' for Inactive)
REMARK    1  A    between atoms: C2_2  and  C3_3 
REMARK    2  A    between atoms: C2_2  and  C9_12 
REMARK    3  A    between atoms: C3_3  and  C4_4 
REMARK    4  A    between atoms: C4_4  and  C5_5 
REMARK    5  A    between atoms: C6_6  and  C7_7 
REMARK    6  A    between atoms: C6_6  and  C8_9 
REMARK    7  A    between atoms: C7_7  and  O1_8 
REMARK    8  A    between atoms: C8_9  and  O3_11 
ROOT
HETATM    1  C9  UNL     1      -0.357  51.242 -23.903  1.00  0.00    -0.002 C 
HETATM    2  C10 UNL     1       0.595  52.476 -23.819  1.00  0.00     0.006 C 
HETATM    3  C11 UNL     1       0.425  53.088 -22.411  1.00  0.00     0.011 C 
HETATM    4  C12 UNL     1      -0.288  51.995 -21.599  1.00  0.00    -0.032 C 
HETATM    5  C13 UNL     1       0.822  50.977 -21.183  1.00  0.00     0.016 C 
HETATM    6  C14 UNL     1      -1.066  52.453 -20.327  1.00  0.00     0.004 C 
HETATM    7  C15 UNL     1      -0.249  53.236 -19.297  1.00  0.00     0.007 C 
HETATM    8  C16 UNL     1       0.394  52.480 -18.138  1.00  0.00     0.007 C 
HETATM    9  C17 UNL     1       0.028  51.003 -17.914  1.00  0.00     0.010 C 
HETATM   10  C18 UNL     1       0.240  50.548 -16.430  1.00  0.00     0.018 C 
HETATM   11  C19 UNL     1       1.706  50.773 -16.001  1.00  0.00     0.023 C 
HETATM   12  C20 UNL     1      -0.672  51.268 -15.419  1.00  0.00     0.023 C 
HETATM   13  C21 UNL     1      -0.071  49.046 -16.345  1.00  0.00     0.135 C 
HETATM   14  O4  UNL     1       0.687  48.236 -15.809  1.00  0.00    -0.297 OA
HETATM   15  C22 UNL     1      -1.403  48.598 -16.890  1.00  0.00     0.080 C 
HETATM   16  C23 UNL     1      -1.560  49.064 -18.324  1.00  0.00     0.018 C 
HETATM   17  C24 UNL     1      -1.333  50.565 -18.470  1.00  0.00    -0.026 A 
HETATM   18  C25 UNL     1      -2.531  51.478 -18.385  1.00  0.00     0.021 A 
HETATM   19  C26 UNL     1      -1.861  51.272 -19.735  1.00  0.00    -0.027 A 
HETATM   20  C27 UNL     1      -2.721  50.535 -20.774  1.00  0.00     0.011 C 
HETATM   21  C28 UNL     1      -1.992  50.204 -22.091  1.00  0.00     0.011 C 
HETATM   22  C29 UNL     1      -1.309  51.449 -22.684  1.00  0.00    -0.032 C 
HETATM   23  C30 UNL     1      -2.427  52.460 -23.079  1.00  0.00     0.016 C 
ENDROOT
BRANCH   1  24
HETATM   24  C2  UNL     1      -0.861  50.932 -25.349  1.00  0.00    -0.014 C 
HETATM   25  C1  UNL     1      -0.648  52.032 -26.395  1.00  0.00     0.010 C 
BRANCH  24  26
HETATM   26  C3  UNL     1      -2.326  50.435 -25.330  1.00  0.00     0.008 C 
BRANCH  26  27
HETATM   27  C4  UNL     1      -2.514  48.909 -25.341  1.00  0.00     0.028 C 
BRANCH  27  28
HETATM   28  C5  UNL     1      -3.552  48.403 -26.302  1.00  0.00    -0.011 C 
HETATM   29  C6  UNL     1      -3.854  48.942 -27.503  1.00  0.00     0.035 C 
BRANCH  29  30
HETATM   30  C7  UNL     1      -3.134  50.100 -28.126  1.00  0.00     0.209 C 
BRANCH  30  31
HETATM   31  O1  UNL     1      -3.776  50.440 -29.349  1.00  0.00    -0.396 OA
HETATM   32  H12 UNL     1      -3.187  51.060 -29.811  1.00  0.00     0.209 HD
ENDBRANCH  30  31
ENDBRANCH  29  30
BRANCH  29  33
HETATM   33  C8  UNL     1      -4.921  48.352 -28.350  1.00  0.00     0.173 C 
HETATM   34  O2  UNL     1      -4.781  47.950 -29.492  1.00  0.00    -0.646 OA
BRANCH  33  35
HETATM   35  O3  UNL     1      -6.119  48.276 -27.744  1.00  0.00    -0.773 OA
HETATM   36  H13 UNL     1      -6.701  47.893 -28.432  1.00  0.00     0.167 HD
ENDBRANCH  33  35
ENDBRANCH  29  33
ENDBRANCH  27  28
ENDBRANCH  26  27
ENDBRANCH  24  26
ENDBRANCH   1  24
TORSDOF 8
ENDMDL
