MODEL 1
REMARK minimizedAffinity -7.03259945
REMARK CNNscore 0.570690155
REMARK CNNaffinity 6.25793266
REMARK  5 active torsions:
REMARK  status: ('A' for Active; 'I' for Inactive)
REMARK    1  A    between atoms: C3_3  and  C4_4 
REMARK    2  A    between atoms: C4_4  and  O2_6 
REMARK    3  A    between atoms: O2_6  and  C5_7 
REMARK    4  A    between atoms: C5_7  and  C6_8 
REMARK    5  A    between atoms: C12_14  and  C13_15 
ROOT
HETATM    1  C1  UNL     1      -9.422  -5.969  -3.516  1.00  0.00     0.069 C 
HETATM    2  C2  UNL     1      -9.648  -4.976  -4.627  1.00  0.00     0.018 C 
HETATM    3  C3  UNL     1     -10.127  -5.287  -5.852  1.00  0.00     0.052 C 
HETATM    4  C12 UNL     1     -10.337  -4.238  -6.937  1.00  0.00     0.104 C 
HETATM    5  C22 UNL     1      -9.726  -2.891  -6.545  1.00  0.00     0.024 C 
HETATM    6  C23 UNL     1      -9.252  -2.660  -5.302  1.00  0.00     0.020 C 
HETATM    7  C24 UNL     1      -8.623  -1.351  -4.894  1.00  0.00     0.058 C 
HETATM    8  C25 UNL     1      -8.083  -0.576  -6.090  1.00  0.00     0.014 C 
HETATM    9  C26 UNL     1      -9.131  -0.464  -7.184  1.00  0.00     0.084 C 
HETATM   10  C27 UNL     1      -9.658  -1.823  -7.583  1.00  0.00     0.158 C 
HETATM   11  O5  UNL     1     -10.079  -2.030  -8.719  1.00  0.00    -0.293 OA
HETATM   12  N1  UNL     1      -9.295  -3.663  -4.347  1.00  0.00    -0.362 N 
HETATM   13  H22 UNL     1      -8.837  -3.488  -3.456  1.00  0.00     0.165 HD
ENDROOT
BRANCH   4  14
HETATM   14  C13 UNL     1     -11.817  -4.117  -7.266  1.00  0.00     0.029 A 
HETATM   15  C14 UNL     1     -12.381  -4.373  -8.457  1.00  0.00     0.154 A 
HETATM   16  O3  UNL     1     -13.716  -4.301  -8.772  1.00  0.00    -0.321 OA
HETATM   17  C15 UNL     1     -14.585  -3.950  -7.773  1.00  0.00     0.089 A 
HETATM   18  C16 UNL     1     -15.943  -3.907  -8.095  1.00  0.00     0.040 A 
HETATM   19  C20 UNL     1     -14.165  -3.640  -6.482  1.00  0.00     0.050 A 
HETATM   20  C17 UNL     1     -16.875  -3.552  -7.117  1.00  0.00     0.026 A 
HETATM   21  C18 UNL     1     -16.445  -3.238  -5.827  1.00  0.00     0.035 A 
HETATM   22 CL1  UNL     1     -17.601  -2.801  -4.629  1.00  0.00    -0.084 Cl
HETATM   23  C19 UNL     1     -15.092  -3.278  -5.501  1.00  0.00     0.042 A 
HETATM   24  C21 UNL     1     -12.727  -3.698  -6.170  1.00  0.00     0.194 A 
HETATM   25  O4  UNL     1     -12.315  -3.397  -5.056  1.00  0.00    -0.287 OA
ENDBRANCH   4  14
BRANCH   3  26
HETATM   26  C4  UNL     1     -10.457  -6.676  -6.215  1.00  0.00     0.292 C 
HETATM   27  O1  UNL     1     -11.555  -7.185  -6.058  1.00  0.00    -0.259 OA
BRANCH  26  28
HETATM   28  O2  UNL     1      -9.348  -7.260  -6.720  1.00  0.00    -0.313 OA
BRANCH  28  29
HETATM   29  C5  UNL     1      -9.333  -8.681  -6.582  1.00  0.00     0.217 C 
BRANCH  29  30
HETATM   30  C6  UNL     1      -8.818  -9.006  -5.204  1.00  0.00    -0.034 A 
HETATM   31  C7  UNL     1      -7.545  -8.568  -4.811  1.00  0.00     0.009 A 
HETATM   32  C8  UNL     1      -7.059  -8.854  -3.535  1.00  0.00     0.001 A 
HETATM   33  C9  UNL     1      -7.841  -9.578  -2.638  1.00  0.00     0.000 A 
HETATM   34  C10 UNL     1      -9.110 -10.015  -3.015  1.00  0.00     0.001 A 
HETATM   35  C11 UNL     1      -9.599  -9.728  -4.291  1.00  0.00     0.009 A 
ENDBRANCH  29  30
ENDBRANCH  28  29
ENDBRANCH  26  28
ENDBRANCH   3  26
TORSDOF 5
ENDMDL
