MODEL 1
REMARK minimizedAffinity -9.56798744
REMARK  8 active torsions:
REMARK  status: ('A' for Active; 'I' for Inactive)
REMARK    1  A    between atoms: C2_2  and  C3_3 
REMARK    2  A    between atoms: C2_2  and  C27_30 
REMARK    3  A    between atoms: C3_3  and  C4_4 
REMARK    4  A    between atoms: C4_4  and  C5_5 
REMARK    5  A    between atoms: C5_5  and  C7_7 
REMARK    6  A    between atoms: C26_28  and  O3_29 
REMARK    7  A    between atoms: C27_30  and  C29_32 
REMARK    8  A    between atoms: C29_32  and  O5_34 
ROOT
HETATM    1  C7  UNL     1      -1.147  48.947 -19.235  1.00  0.00    -0.002 C 
HETATM    2  C8  UNL     1      -1.752  47.676 -19.857  1.00  0.00     0.006 C 
HETATM    3  C9  UNL     1      -1.624  47.900 -21.355  1.00  0.00     0.010 C 
HETATM    4  C10 UNL     1      -2.069  49.356 -21.495  1.00  0.00     0.027 C 
HETATM    5  C11 UNL     1      -1.860  49.957 -22.872  1.00  0.00    -0.036 C 
HETATM    6  C12 UNL     1      -1.002  50.969 -23.138  1.00  0.00     0.002 C 
HETATM    7  C13 UNL     1      -0.041  51.384 -22.054  1.00  0.00     0.157 C 
HETATM    8  O1  UNL     1       0.794  52.268 -22.246  1.00  0.00    -0.293 OA
HETATM    9  C14 UNL     1      -0.006  50.609 -20.759  1.00  0.00     0.093 C 
HETATM   10  C15 UNL     1      -1.379  50.085 -20.307  1.00  0.00    -0.026 C 
HETATM   11  C16 UNL     1      -2.248  51.279 -19.877  1.00  0.00     0.016 C 
HETATM   12  C17 UNL     1      -0.926  51.709 -24.497  1.00  0.00    -0.008 C 
HETATM   13  C18 UNL     1      -1.166  53.230 -24.252  1.00  0.00     0.021 C 
HETATM   14  C19 UNL     1       0.494  51.508 -25.115  1.00  0.00     0.022 C 
HETATM   15  C20 UNL     1       0.553  50.893 -26.506  1.00  0.00     0.080 C 
HETATM   16  C21 UNL     1      -0.446  51.503 -27.447  1.00  0.00     0.131 C 
HETATM   17  O2  UNL     1      -0.131  51.774 -28.611  1.00  0.00    -0.298 OA
HETATM   18  C22 UNL     1      -1.855  51.743 -26.931  1.00  0.00     0.056 C 
HETATM   19  C23 UNL     1      -2.878  51.195 -27.928  1.00  0.00     0.018 C 
HETATM   20  C24 UNL     1      -2.066  51.241 -25.479  1.00  0.00     0.012 C 
HETATM   21  C25 UNL     1      -2.321  49.730 -25.361  1.00  0.00     0.042 C 
HETATM   22  C26 UNL     1      -2.750  49.371 -23.940  1.00  0.00     0.148 C 
ENDROOT
BRANCH   1  23
HETATM   23  C5  UNL     1      -1.501  49.115 -17.731  1.00  0.00    -0.014 C 
HETATM   24  C6  UNL     1      -2.552  50.185 -17.426  1.00  0.00     0.010 C 
BRANCH  23  25
HETATM   25  C4  UNL     1      -0.223  49.288 -16.870  1.00  0.00     0.009 C 
BRANCH  25  26
HETATM   26  C3  UNL     1      -0.099  50.654 -16.163  1.00  0.00     0.034 C 
BRANCH  26  27
HETATM   27  C2  UNL     1       0.984  51.612 -16.625  1.00  0.00    -0.075 C 
HETATM   28  C1  UNL     1       0.829  52.393 -17.711  1.00  0.00     0.015 C 
BRANCH  27  29
HETATM   29  C27 UNL     1       2.303  51.622 -15.851  1.00  0.00     0.107 C 
HETATM   30  C28 UNL     1       3.247  52.728 -16.321  1.00  0.00     0.026 C 
BRANCH  29  31
HETATM   31  C29 UNL     1       2.097  51.708 -14.338  1.00  0.00     0.147 C 
HETATM   32  O4  UNL     1       2.583  51.007 -13.466  1.00  0.00    -0.650 OA
BRANCH  31  33
HETATM   33  O5  UNL     1       1.252  52.705 -13.994  1.00  0.00    -0.776 OA
HETATM   34  H42 UNL     1       1.216  52.648 -13.015  1.00  0.00     0.167 HD
ENDBRANCH  31  33
ENDBRANCH  29  31
ENDBRANCH  27  29
ENDBRANCH  26  27
ENDBRANCH  25  26
ENDBRANCH  23  25
ENDBRANCH   1  23
BRANCH  22  35
HETATM   35  O3  UNL     1      -4.074  49.833 -23.693  1.00  0.00    -0.391 OA
HETATM   36  H37 UNL     1      -4.667  49.373 -24.311  1.00  0.00     0.210 HD
ENDBRANCH  22  35
TORSDOF 8
ENDMDL
