MODEL 1
REMARK minimizedAffinity -8.88781643
REMARK CNNscore 0.615213692
REMARK CNNaffinity 7.68108606
REMARK  12 active torsions:
REMARK  status: ('A' for Active; 'I' for Inactive)
REMARK    1  A    between atoms: O1_2  and  C2_3 
REMARK    2  A    between atoms: C2_3  and  C5_6 
REMARK    3  A    between atoms: C6_7  and  C7_8 
REMARK    4  A    between atoms: C7_8  and  C8_9 
REMARK    5  A    between atoms: C8_9  and  C10_11 
REMARK    6  A    between atoms: C28_30  and  O3_31 
REMARK    7  A    between atoms: O3_31  and  C29_32 
REMARK    8  A    between atoms: C30_34  and  C31_35 
REMARK    9  A    between atoms: C31_35  and  O5_36 
REMARK   10  A    between atoms: C32_37  and  O6_38 
REMARK   11  A    between atoms: C33_39  and  O7_40 
REMARK   12  A    between atoms: C34_41  and  O8_42 
ROOT
HETATM    1  C10 UNL     1      -2.222   5.522  13.998  1.00  0.00    -0.002 C 
HETATM    2  C11 UNL     1      -0.943   5.536  13.099  1.00  0.00     0.006 C 
HETATM    3  C12 UNL     1      -0.309   6.937  13.202  1.00  0.00     0.011 C 
HETATM    4  C13 UNL     1      -0.998   7.587  14.417  1.00  0.00    -0.029 C 
HETATM    5  C14 UNL     1      -0.257   7.031  15.680  1.00  0.00     0.016 C 
HETATM    6  C15 UNL     1      -1.004   9.150  14.418  1.00  0.00     0.028 C 
HETATM    7  C16 UNL     1       0.391   9.753  14.493  1.00  0.00    -0.021 C 
HETATM    8  C17 UNL     1       0.697  10.727  15.372  1.00  0.00     0.008 C 
HETATM    9  C18 UNL     1      -0.356  11.284  16.326  1.00  0.00     0.092 C 
HETATM   10  O2  UNL     1      -1.232  12.034  15.451  1.00  0.00    -0.374 OA
HETATM   11  C19 UNL     1      -2.346  11.205  15.104  1.00  0.00     0.179 C 
HETATM   12  C20 UNL     1      -1.993   9.756  15.514  1.00  0.00    -0.004 C 
HETATM   13  C21 UNL     1      -3.315   8.959  15.682  1.00  0.00     0.014 C 
HETATM   14  C22 UNL     1      -3.256   7.437  15.506  1.00  0.00     0.011 C 
HETATM   15  C23 UNL     1      -2.469   7.046  14.243  1.00  0.00    -0.032 C 
HETATM   16  C24 UNL     1      -3.211   7.634  12.995  1.00  0.00     0.016 C 
HETATM   17  C25 UNL     1      -1.186  10.056  16.802  1.00  0.00     0.036 C 
HETATM   18  C26 UNL     1      -1.970  10.328  18.082  1.00  0.00     0.011 C 
HETATM   19  C27 UNL     1      -1.044  10.740  19.232  1.00  0.00     0.033 C 
HETATM   20  C28 UNL     1       0.287  11.360  18.780  1.00  0.00     0.136 C 
HETATM   21  C35 UNL     1       0.131  12.222  17.497  1.00  0.00     0.014 C 
HETATM   22  C36 UNL     1      -0.861  13.395  17.750  1.00  0.00     0.021 C 
HETATM   23  C37 UNL     1       1.484  12.906  17.190  1.00  0.00     0.021 C 
ENDROOT
BRANCH  20  24
HETATM   24  O3  UNL     1       0.798  12.171  19.839  1.00  0.00    -0.352 OA
BRANCH  24  25
HETATM   25  C29 UNL     1       2.047  11.742  20.383  1.00  0.00     0.292 C 
HETATM   26  O4  UNL     1       1.815  10.560  21.146  1.00  0.00    -0.348 OA
HETATM   27  C30 UNL     1       3.015  10.005  21.714  1.00  0.00     0.179 C 
HETATM   28  C32 UNL     1       3.911  11.076  22.373  1.00  0.00     0.180 C 
HETATM   29  C33 UNL     1       3.107  12.355  22.618  1.00  0.00     0.183 C 
HETATM   30  C34 UNL     1       2.560  12.895  21.283  1.00  0.00     0.204 C 
BRANCH  27  31
HETATM   31  C31 UNL     1       2.561   8.960  22.738  1.00  0.00     0.198 C 
BRANCH  31  32
HETATM   32  O5  UNL     1       1.859   7.898  22.111  1.00  0.00    -0.398 OA
HETATM   33  H48 UNL     1       1.583   7.281  22.812  1.00  0.00     0.209 HD
ENDBRANCH  31  32
ENDBRANCH  27  31
BRANCH  28  34
HETATM   34  O6  UNL     1       5.000  11.419  21.482  1.00  0.00    -0.390 OA
HETATM   35  H50 UNL     1       5.628  11.902  22.057  1.00  0.00     0.210 HD
ENDBRANCH  28  34
BRANCH  29  36
HETATM   36  O7  UNL     1       3.969  13.332  23.239  1.00  0.00    -0.390 OA
HETATM   37  H52 UNL     1       3.906  14.142  22.693  1.00  0.00     0.210 HD
ENDBRANCH  29  36
BRANCH  30  38
HETATM   38  O8  UNL     1       3.607  13.635  20.605  1.00  0.00    -0.388 OA
HETATM   39  H54 UNL     1       4.367  13.018  20.546  1.00  0.00     0.210 HD
ENDBRANCH  30  38
ENDBRANCH  24  25
ENDBRANCH  20  24
BRANCH   1  40
HETATM   40  C8  UNL     1      -3.357   4.657  13.369  1.00  0.00    -0.010 C 
HETATM   41  C9  UNL     1      -2.871   3.830  12.169  1.00  0.00     0.010 C 
BRANCH  40  42
HETATM   42  C7  UNL     1      -4.555   5.536  12.914  1.00  0.00     0.031 C 
BRANCH  42  43
HETATM   43  C6  UNL     1      -5.799   5.555  13.778  1.00  0.00    -0.027 C 
HETATM   44  C5  UNL     1      -6.695   6.551  13.880  1.00  0.00     0.006 C 
BRANCH  44  45
HETATM   45  C2  UNL     1      -7.969   6.585  14.705  1.00  0.00     0.070 C 
HETATM   46  C3  UNL     1      -8.424   7.977  15.178  1.00  0.00     0.050 C 
HETATM   47  C4  UNL     1      -7.734   5.699  15.944  1.00  0.00     0.050 C 
BRANCH  45  48
HETATM   48  O1  UNL     1      -9.006   5.918  13.965  1.00  0.00    -0.382 OA
HETATM   49  C1  UNL     1      -8.868   5.934  12.549  1.00  0.00     0.202 C 
ENDBRANCH  45  48
ENDBRANCH  44  45
ENDBRANCH  42  43
ENDBRANCH  40  42
ENDBRANCH   1  40
TORSDOF 12
ENDMDL
