MODEL 1
REMARK minimizedAffinity -10.1716738
REMARK CNNscore 0.655590892
REMARK CNNaffinity 7.07345819
REMARK  11 active torsions:
REMARK  status: ('A' for Active; 'I' for Inactive)
REMARK    1  A    between atoms: O1_2  and  C2_3 
REMARK    2  A    between atoms: C4_5  and  O2_6 
REMARK    3  A    between atoms: O2_6  and  C5_7 
REMARK    4  A    between atoms: C8_10  and  C9_11 
REMARK    5  A    between atoms: N1_12  and  C10_14 
REMARK    6  A    between atoms: C10_14  and  C11_15 
REMARK    7  A    between atoms: C11_15  and  O3_16 
REMARK    8  A    between atoms: C17_22  and  C18_23 
REMARK    9  A    between atoms: C24_31  and  O6_32 
REMARK   10  A    between atoms: C28_36  and  O7_37 
REMARK   11  A    between atoms: C32_42  and  O9_43 
ROOT
HETATM    1  C5  UNL     1      -4.876   7.904  15.434  1.00  0.00     0.127 C 
HETATM    2  C6  UNL     1      -4.873   8.910  14.270  1.00  0.00     0.033 C 
HETATM    3  C7  UNL     1      -3.669   8.755  13.340  1.00  0.00     0.021 C 
HETATM    4  C8  UNL     1      -2.268   8.776  14.050  1.00  0.00     0.026 C 
HETATM    5  C12 UNL     1      -1.283   7.910  13.152  1.00  0.00     0.009 C 
HETATM    6  C13 UNL     1      -1.011   8.543  11.764  1.00  0.00     0.007 C 
HETATM    7  C14 UNL     1      -0.087   7.698  10.887  1.00  0.00     0.013 C 
HETATM    8  C15 UNL     1       1.256   7.363  11.576  1.00  0.00    -0.005 C 
HETATM    9  C16 UNL     1       2.127   8.642  11.680  1.00  0.00     0.019 C 
HETATM   10  C17 UNL     1       2.019   6.206  10.840  1.00  0.00     0.028 C 
HETATM   11  C22 UNL     1       1.295   4.921  11.320  1.00  0.00     0.013 C 
HETATM   12  C23 UNL     1       0.577   5.271  12.630  1.00  0.00     0.040 C 
HETATM   13  C24 UNL     1       1.014   6.709  12.975  1.00  0.00     0.070 C 
HETATM   14  C25 UNL     1       0.031   7.514  13.870  1.00  0.00     0.026 C 
HETATM   15  C26 UNL     1      -0.312   6.791  15.179  1.00  0.00     0.011 C 
HETATM   16  C27 UNL     1      -1.073   7.724  16.104  1.00  0.00     0.039 C 
HETATM   17  C28 UNL     1      -2.391   8.254  15.528  1.00  0.00     0.073 C 
HETATM   18  C29 UNL     1      -3.521   7.212  15.616  1.00  0.00     0.071 C 
ENDROOT
BRANCH   1  19
HETATM   19  O2  UNL     1      -5.926   6.945  15.254  1.00  0.00    -0.356 OA
BRANCH  19  20
HETATM   20  C4  UNL     1      -5.979   6.432  13.917  1.00  0.00     0.263 C 
HETATM   21  C3  UNL     1      -5.863   4.910  13.948  1.00  0.00     0.095 C 
HETATM   22  C2  UNL     1      -6.402   4.338  12.646  1.00  0.00     0.156 C 
HETATM   23  C32 UNL     1      -7.900   4.688  12.519  1.00  0.00     0.175 C 
HETATM   24  C30 UNL     1      -8.249   6.045  13.159  1.00  0.00     0.151 C 
HETATM   25  O8  UNL     1      -7.108   6.911  13.194  1.00  0.00    -0.354 OA
HETATM   26  C31 UNL     1      -8.934   5.973  14.524  1.00  0.00     0.042 C 
BRANCH  22  27
HETATM   27  O1  UNL     1      -6.284   2.899  12.572  1.00  0.00    -0.388 OA
HETATM   28  C1  UNL     1      -5.524   2.455  11.452  1.00  0.00     0.202 C 
ENDBRANCH  22  27
BRANCH  23  29
HETATM   29  O9  UNL     1      -8.713   3.640  13.056  1.00  0.00    -0.390 OA
HETATM   30  H49 UNL     1      -8.162   2.833  12.973  1.00  0.00     0.210 HD
ENDBRANCH  23  29
ENDBRANCH  19  20
ENDBRANCH   1  19
BRANCH  17  31
HETATM   31  O7  UNL     1      -2.788   9.339  16.396  1.00  0.00    -0.389 OA
HETATM   32  H41 UNL     1      -2.792   9.004  17.312  1.00  0.00     0.210 HD
ENDBRANCH  17  31
BRANCH   4  33
HETATM   33  C9  UNL     1      -1.825  10.243  14.144  1.00  0.00     0.068 C 
HETATM   34  N1  UNL     1      -0.791  10.616  14.824  1.00  0.00    -0.399 N 
ATOM     35  H1  UNL     1      -0.170   9.953  15.287  1.00  0.00     0.158 HD
BRANCH  34  36
HETATM   36  C10 UNL     1      -0.579  12.066  14.880  1.00  0.00     0.144 C 
BRANCH  36  37
HETATM   37  C11 UNL     1      -1.843  12.771  14.380  1.00  0.00     0.183 C 
BRANCH  37  38
HETATM   38  O3  UNL     1      -1.535  13.729  13.372  1.00  0.00    -0.399 OA
HETATM   39  H18 UNL     1      -1.156  13.244  12.616  1.00  0.00     0.209 HD
ENDBRANCH  37  38
ENDBRANCH  36  37
ENDBRANCH  34  36
ENDBRANCH   4  33
BRANCH  13  40
HETATM   40  O6  UNL     1       2.288   6.620  13.646  1.00  0.00    -0.389 OA
HETATM   41  H35 UNL     1       2.180   6.084  14.443  1.00  0.00     0.210 HD
ENDBRANCH  13  40
BRANCH  10  42
HETATM   42  C18 UNL     1       2.220   6.321   9.352  1.00  0.00    -0.045 A 
HETATM   43  C19 UNL     1       1.679   7.179   8.483  1.00  0.00     0.087 A 
HETATM   44  C20 UNL     1       2.127   6.788   7.149  1.00  0.00     0.283 A 
HETATM   45  O4  UNL     1       1.816   7.361   6.118  1.00  0.00    -0.260 OA
HETATM   46  O5  UNL     1       2.907   5.681   7.246  1.00  0.00    -0.314 OA
HETATM   47  C21 UNL     1       3.030   5.314   8.619  1.00  0.00     0.213 A 
ENDBRANCH  10  42
TORSDOF 11
ENDMDL
