MODEL 1
REMARK minimizedAffinity -10.0261135
REMARK  7 active torsions:
REMARK  status: ('A' for Active; 'I' for Inactive)
REMARK    1  A    between atoms: C4_4  and  C5_5 
REMARK    2  A    between atoms: C5_5  and  O1_6 
REMARK    3  A    between atoms: C5_5  and  C6_7 
REMARK    4  A    between atoms: C6_7  and  C7_8 
REMARK    5  A    between atoms: C7_8  and  C8_10 
REMARK    6  A    between atoms: C8_10  and  C10_12 
REMARK    7  A    between atoms: C18_20  and  O3_21 
ROOT
HETATM    1  C10 UNL     1      -0.460   6.875  13.297  1.00  0.00     0.008 C 
HETATM    2  C11 UNL     1      -1.443   8.029  13.009  1.00  0.00     0.007 C 
HETATM    3  C12 UNL     1      -2.803   7.806  13.673  1.00  0.00     0.006 C 
HETATM    4  C13 UNL     1      -3.449   6.450  13.308  1.00  0.00     0.003 C 
HETATM    5  C14 UNL     1      -4.931   6.253  13.867  1.00  0.00    -0.035 C 
HETATM    6  C15 UNL     1      -4.968   6.265  15.412  1.00  0.00     0.016 C 
HETATM    7  C16 UNL     1      -5.823   7.434  13.371  1.00  0.00     0.012 C 
HETATM    8  C17 UNL     1      -7.322   7.220  13.570  1.00  0.00     0.033 C 
HETATM    9  C18 UNL     1      -7.809   5.920  12.941  1.00  0.00     0.126 C 
HETATM   10  C19 UNL     1      -7.031   4.657  13.417  1.00  0.00    -0.017 C 
HETATM   11  C20 UNL     1      -7.476   3.479  12.504  1.00  0.00     0.018 C 
HETATM   12  C21 UNL     1      -7.422   4.248  14.852  1.00  0.00     0.018 C 
HETATM   13  C22 UNL     1      -5.491   4.926  13.227  1.00  0.00     0.004 C 
HETATM   14  C23 UNL     1      -4.584   3.723  13.549  1.00  0.00     0.007 C 
HETATM   15  C24 UNL     1      -3.156   3.935  13.029  1.00  0.00     0.011 C 
HETATM   16  C25 UNL     1      -2.454   5.231  13.526  1.00  0.00    -0.029 C 
HETATM   17  C26 UNL     1      -2.131   5.030  15.041  1.00  0.00     0.016 C 
HETATM   18  C27 UNL     1      -1.055   5.525  12.714  1.00  0.00     0.002 C 
HETATM   19  C28 UNL     1      -1.294   5.576  11.187  1.00  0.00     0.190 C 
HETATM   20  O4  UNL     1      -1.113   4.255  10.674  1.00  0.00    -0.321 OA
HETATM   21  C29 UNL     1      -0.396   3.518  11.559  1.00  0.00     0.259 C 
HETATM   22  O5  UNL     1      -0.037   2.370  11.362  1.00  0.00    -0.265 OA
HETATM   23  C30 UNL     1      -0.074   4.338  12.770  1.00  0.00     0.124 C 
ENDROOT
BRANCH   1  24
HETATM   24  C8  UNL     1       1.016   7.336  13.002  1.00  0.00     0.056 C 
HETATM   25  C9  UNL     1       1.415   8.702  13.542  1.00  0.00     0.018 C 
BRANCH  24  26
HETATM   26  C7  UNL     1       1.402   7.150  11.518  1.00  0.00     0.133 C 
HETATM   27  O2  UNL     1       0.958   7.896  10.641  1.00  0.00    -0.297 OA
BRANCH  26  28
HETATM   28  C6  UNL     1       2.310   5.998  11.118  1.00  0.00     0.114 C 
BRANCH  28  29
HETATM   29  C5  UNL     1       3.273   6.319   9.977  1.00  0.00     0.148 C 
BRANCH  29  30
HETATM   30  C4  UNL     1       2.651   6.285   8.609  1.00  0.00     0.007 C 
HETATM   31  C2  UNL     1       2.527   7.289   7.719  1.00  0.00    -0.089 C 
HETATM   32  C1  UNL     1       3.005   8.702   7.914  1.00  0.00     0.042 C 
HETATM   33  C3  UNL     1       1.851   7.052   6.392  1.00  0.00     0.042 C 
ENDBRANCH  29  30
BRANCH  29  34
HETATM   34  O1  UNL     1       4.359   5.397   9.983  1.00  0.00    -0.391 OA
HETATM   35  H9  UNL     1       4.930   5.639   9.231  1.00  0.00     0.210 HD
ENDBRANCH  29  34
ENDBRANCH  28  29
ENDBRANCH  26  28
ENDBRANCH  24  26
ENDBRANCH   1  24
BRANCH   9  36
HETATM   36  O3  UNL     1      -9.212   5.796  13.172  1.00  0.00    -0.395 OA
HETATM   37  H30 UNL     1      -9.370   5.854  14.128  1.00  0.00     0.210 HD
ENDBRANCH   9  36
TORSDOF 7
ENDMDL
