MODEL 1
REMARK minimizedAffinity -8.73924065
REMARK  5 active torsions:
REMARK  status: ('A' for Active; 'I' for Inactive)
REMARK    1  A    between atoms: N2_12  and  C9_13 
REMARK    2  A    between atoms: C9_13  and  C10_14 
REMARK    3  A    between atoms: C10_14  and  C11_15 
REMARK    4  A    between atoms: C11_15  and  N3_16 
REMARK    5  A    between atoms: N4_19  and  C14_20 
ROOT
HETATM    1  C9  UNL     1      -1.523  51.537 -19.267  1.00  0.00     0.139 C 
ENDROOT
BRANCH   1   2
HETATM    2  N2  UNL     1      -0.335  51.810 -18.467  1.00  0.00    -0.266 N 
HETATM    3  C1  UNL     1       0.484  52.859 -18.856  1.00  0.00     0.329 A 
HETATM    4  O1  UNL     1       0.285  53.562 -19.845  1.00  0.00    -0.246 OA
HETATM    5  N1  UNL     1       1.577  53.107 -18.075  1.00  0.00    -0.307 N 
HETATM    6  C2  UNL     1       1.890  52.391 -16.925  1.00  0.00     0.052 A 
HETATM    7  H1  UNL     1       2.164  53.872 -18.384  1.00  0.00     0.170 HD
HETATM    8  C3  UNL     1       3.031  52.712 -16.190  1.00  0.00     0.030 A 
HETATM    9  C7  UNL     1       1.057  51.358 -16.509  1.00  0.00     0.059 A 
HETATM   10  C4  UNL     1       3.333  51.990 -15.033  1.00  0.00     0.002 A 
HETATM   11  C5  UNL     1       2.498  50.952 -14.614  1.00  0.00     0.001 A 
HETATM   12  C6  UNL     1       1.357  50.635 -15.350  1.00  0.00     0.019 A 
HETATM   13  C8  UNL     1      -0.143  51.053 -17.312  1.00  0.00     0.264 A 
HETATM   14  O2  UNL     1      -0.910  50.169 -16.934  1.00  0.00    -0.267 OA
ENDBRANCH   1   2
BRANCH   1  15
HETATM   15  C10 UNL     1      -1.169  50.844 -20.587  1.00  0.00     0.050 C 
BRANCH  15  16
HETATM   16  C11 UNL     1      -2.433  50.329 -21.286  1.00  0.00     0.274 C 
BRANCH  16  17
HETATM   17  N3  UNL     1      -2.612  50.897 -22.631  1.00  0.00     0.091 N 
HETATM   18  C12 UNL     1      -2.393  49.888 -23.695  1.00  0.00     0.292 C 
HETATM   19  C13 UNL     1      -1.930  50.471 -25.051  1.00  0.00     0.153 C 
HETATM   20  N4  UNL     1      -0.654  51.186 -24.897  1.00  0.00    -0.378 N 
HETATM   21  C20 UNL     1      -0.417  51.818 -23.589  1.00  0.00     0.153 C 
HETATM   22  C21 UNL     1      -1.747  52.080 -22.843  1.00  0.00     0.292 C 
BRANCH  20  23
HETATM   23  C14 UNL     1       0.210  51.386 -25.961  1.00  0.00     0.030 A 
HETATM   24  C15 UNL     1      -0.263  51.578 -27.270  1.00  0.00     0.029 A 
HETATM   25  C16 UNL     1       0.601  51.784 -28.353  1.00  0.00     0.002 A 
HETATM   26  C17 UNL     1       1.976  51.805 -28.152  1.00  0.00     0.000 A 
HETATM   27  C18 UNL     1       2.478  51.623 -26.870  1.00  0.00     0.002 A 
HETATM   28  C19 UNL     1       1.605  51.417 -25.794  1.00  0.00     0.029 A 
ENDBRANCH  20  23
ENDBRANCH  16  17
ENDBRANCH  15  16
ENDBRANCH   1  15
TORSDOF 5
ENDMDL
