MODEL 1
REMARK minimizedAffinity -6.1491766
REMARK  8 active torsions:
REMARK  status: ('A' for Active; 'I' for Inactive)
REMARK    1  A    between atoms: C2_2  and  N1_3 
REMARK    2  A    between atoms: N1_3  and  C3_4 
REMARK    3  A    between atoms: N1_3  and  C5_6 
REMARK    4  A    between atoms: C5_6  and  C6_7 
REMARK    5  A    between atoms: C6_7  and  O1_8 
REMARK    6  A    between atoms: O1_8  and  C7_9 
REMARK    7  A    between atoms: C7_9  and  C8_11 
REMARK    8  A    between atoms: C11_14  and  N2_15 
ROOT
HETATM    1  C8  UNL     1      -0.774  52.004 -26.904  1.00  0.00     0.061 A 
HETATM    2  C9  UNL     1      -0.138  51.958 -28.150  1.00  0.00     0.021 A 
HETATM    3  C10 UNL     1       1.250  51.818 -28.221  1.00  0.00     0.024 A 
HETATM    4  C11 UNL     1       2.022  51.762 -27.058  1.00  0.00     0.007 A 
HETATM    5  C12 UNL     1       1.373  51.751 -25.820  1.00  0.00     0.048 A 
HETATM    6  C13 UNL     1      -0.019  51.891 -25.734  1.00  0.00     0.052 A 
HETATM    7 CL1  UNL     1      -0.721  51.958 -24.158  1.00  0.00    -0.083 Cl
ENDROOT
BRANCH   1   8
HETATM    8  C7  UNL     1      -2.242  52.121 -26.862  1.00  0.00     0.295 C 
HETATM    9  O2  UNL     1      -2.852  53.025 -26.321  1.00  0.00    -0.259 OA
BRANCH   8  10
HETATM   10  O1  UNL     1      -2.768  51.065 -27.531  1.00  0.00    -0.316 OA
BRANCH  10  11
HETATM   11  C6  UNL     1      -3.242  49.989 -26.699  1.00  0.00     0.209 C 
BRANCH  11  12
HETATM   12  C5  UNL     1      -3.652  50.511 -25.313  1.00  0.00     0.299 C 
BRANCH  12  13
HETATM   13  N1  UNL     1      -4.725  49.691 -24.706  1.00  0.00     0.089 N 
BRANCH  13  14
HETATM   14  C2  UNL     1      -5.422  50.476 -23.667  1.00  0.00     0.268 C 
HETATM   15  C1  UNL     1      -5.005  51.943 -23.623  1.00  0.00     0.037 C 
ENDBRANCH  13  14
BRANCH  13  16
HETATM   16  C3  UNL     1      -4.199  48.427 -24.150  1.00  0.00     0.268 C 
HETATM   17  C4  UNL     1      -2.972  48.587 -23.259  1.00  0.00     0.037 C 
ENDBRANCH  13  16
ENDBRANCH  12  13
ENDBRANCH  11  12
ENDBRANCH  10  11
ENDBRANCH   8  10
ENDBRANCH   1   8
BRANCH   4  18
HETATM   18  N2  UNL     1       3.392  51.499 -27.138  1.00  0.00    -0.303 NA
HETATM   19  H17 UNL     1       3.834  51.815 -27.996  1.00  0.00     0.124 HD
HETATM   20  H18 UNL     1       3.923  51.765 -26.313  1.00  0.00     0.124 HD
ENDBRANCH   4  18
TORSDOF 8
ENDMDL
