MODEL 1
REMARK minimizedAffinity -6.46334267
REMARK CNNscore 0.570646167
REMARK CNNaffinity 6.55156946
REMARK  9 active torsions:
REMARK  status: ('A' for Active; 'I' for Inactive)
REMARK    1  A    between atoms: C2_2  and  C4_4 
REMARK    2  A    between atoms: C4_4  and  O1_5 
REMARK    3  A    between atoms: C4_4  and  C5_7 
REMARK    4  A    between atoms: O1_5  and  O2_6 
REMARK    5  A    between atoms: C5_7  and  O3_8 
REMARK    6  A    between atoms: C5_7  and  C6_9 
REMARK    7  A    between atoms: C6_9  and  C7_10 
REMARK    8  A    between atoms: C7_10  and  C9_12 
REMARK    9  A    between atoms: C20_23  and  O4_24 
ROOT
HETATM    1  C9  UNL     1     -13.243 -11.113  25.893  1.00  0.00    -0.002 C 
HETATM    2  C10 UNL     1     -14.674 -10.938  25.297  1.00  0.00     0.006 C 
HETATM    3  C11 UNL     1     -15.519 -10.154  26.318  1.00  0.00     0.011 C 
HETATM    4  C12 UNL     1     -14.500  -9.585  27.315  1.00  0.00    -0.032 C 
HETATM    5  C13 UNL     1     -13.899  -8.286  26.667  1.00  0.00     0.016 C 
HETATM    6  C14 UNL     1     -15.057  -9.232  28.736  1.00  0.00     0.004 C 
HETATM    7  C15 UNL     1     -16.245  -8.239  28.657  1.00  0.00     0.006 C 
HETATM    8  C16 UNL     1     -16.254  -7.058  29.620  1.00  0.00     0.006 C 
HETATM    9  C17 UNL     1     -14.881  -6.383  29.705  1.00  0.00     0.001 C 
HETATM   10  C18 UNL     1     -14.837  -5.196  30.701  1.00  0.00     0.015 C 
HETATM   11  C19 UNL     1     -16.003  -4.213  30.557  1.00  0.00     0.013 C 
HETATM   12  C20 UNL     1     -13.499  -4.431  30.562  1.00  0.00     0.122 C 
HETATM   13  C21 UNL     1     -12.383  -5.251  29.913  1.00  0.00     0.033 C 
HETATM   14  C22 UNL     1     -12.414  -6.721  30.324  1.00  0.00     0.013 C 
HETATM   15  C23 UNL     1     -13.779  -7.370  30.114  1.00  0.00    -0.027 A 
HETATM   16  C24 UNL     1     -14.162  -8.460  31.094  1.00  0.00     0.021 A 
HETATM   17  C25 UNL     1     -13.874  -8.838  29.656  1.00  0.00    -0.027 A 
HETATM   18  C26 UNL     1     -12.658  -9.779  29.590  1.00  0.00     0.011 C 
HETATM   19  C27 UNL     1     -12.254 -10.258  28.191  1.00  0.00     0.011 C 
HETATM   20  C28 UNL     1     -13.468 -10.778  27.404  1.00  0.00    -0.032 C 
HETATM   21  C29 UNL     1     -14.027 -12.049  28.116  1.00  0.00     0.016 C 
ENDROOT
BRANCH   1  22
HETATM   22  C7  UNL     1     -12.600 -12.473  25.474  1.00  0.00    -0.011 C 
HETATM   23  C8  UNL     1     -13.467 -13.671  25.871  1.00  0.00     0.010 C 
BRANCH  22  24
HETATM   24  C6  UNL     1     -11.182 -12.608  26.096  1.00  0.00     0.039 C 
BRANCH  24  25
HETATM   25  C5  UNL     1      -9.974 -12.416  25.153  1.00  0.00     0.154 C 
BRANCH  25  26
HETATM   26  C4  UNL     1      -9.205 -13.738  24.849  1.00  0.00     0.216 C 
BRANCH  26  27
HETATM   27  C2  UNL     1      -9.052 -14.752  25.985  1.00  0.00    -0.059 C 
HETATM   28  C1  UNL     1      -8.237 -14.614  27.045  1.00  0.00     0.016 C 
HETATM   29  C3  UNL     1      -9.937 -15.967  25.878  1.00  0.00     0.045 C 
ENDBRANCH  26  27
BRANCH  26  30
HETATM   30  O1  UNL     1      -7.892 -13.397  24.364  1.00  0.00    -0.231 OA
BRANCH  30  31
HETATM   31  O2  UNL     1      -7.507 -14.429  23.407  1.00  0.00    -0.250 OA
HETATM   32  H7  UNL     1      -6.659 -14.651  23.835  1.00  0.00     0.253 HD
ENDBRANCH  30  31
ENDBRANCH  26  30
ENDBRANCH  25  26
BRANCH  25  33
HETATM   33  O3  UNL     1     -10.480 -11.820  23.942  1.00  0.00    -0.393 OA
HETATM   34  H9  UNL     1     -11.017 -11.051  24.191  1.00  0.00     0.210 HD
ENDBRANCH  25  33
ENDBRANCH  24  25
ENDBRANCH  22  24
ENDBRANCH   1  22
BRANCH  12  35
HETATM   35  O4  UNL     1     -13.092  -4.006  31.864  1.00  0.00    -0.395 OA
HETATM   36  H35 UNL     1     -12.285  -3.473  31.761  1.00  0.00     0.210 HD
ENDBRANCH  12  35
TORSDOF 9
ENDMDL
