MODEL 1
REMARK minimizedAffinity -9.07597923
REMARK CNNscore 0.603653491
REMARK CNNaffinity 6.99629927
REMARK  13 active torsions:
REMARK  status: ('A' for Active; 'I' for Inactive)
REMARK    1  A    between atoms: O1_2  and  C2_3 
REMARK    2  A    between atoms: C2_3  and  C3_4 
REMARK    3  A    between atoms: C3_4  and  C4_5 
REMARK    4  A    between atoms: C4_5  and  O2_6 
REMARK    5  A    between atoms: O2_6  and  C5_7 
REMARK    6  A    between atoms: C18_21  and  C19_22 
REMARK    7  A    between atoms: C25_28  and  C26_29 
REMARK    8  A    between atoms: C26_29  and  O4_31 
REMARK    9  A    between atoms: C26_29  and  C28_32 
REMARK   10  A    between atoms: C28_32  and  O5_33 
REMARK   11  A    between atoms: C28_32  and  C29_34 
REMARK   12  A    between atoms: C34_41  and  O7_42 
REMARK   13  A    between atoms: C39_47  and  O8_48 
ROOT
HETATM    1  C5  UNL     1     -11.025  46.044 -24.231  1.00  0.00     0.122 C 
HETATM    2  C6  UNL     1     -10.821  46.622 -22.824  1.00  0.00     0.033 C 
HETATM    3  C7  UNL     1      -9.755  45.883 -22.018  1.00  0.00     0.013 C 
HETATM    4  C8  UNL     1      -8.369  45.690 -22.736  1.00  0.00    -0.026 C 
HETATM    5  C9  UNL     1      -8.051  44.173 -22.657  1.00  0.00     0.016 C 
HETATM    6  C10 UNL     1      -8.462  46.116 -24.227  1.00  0.00     0.071 C 
HETATM    7  C11 UNL     1      -9.727  45.538 -24.882  1.00  0.00     0.045 C 
HETATM    8  C12 UNL     1      -8.445  47.628 -24.436  1.00  0.00     0.154 C 
HETATM    9  O3  UNL     1      -8.943  48.169 -25.423  1.00  0.00    -0.293 OA
HETATM   10  C13 UNL     1      -7.769  48.490 -23.447  1.00  0.00     0.057 C 
HETATM   11  C14 UNL     1      -7.189  47.975 -22.356  1.00  0.00    -0.037 C 
HETATM   12  C15 UNL     1      -7.254  46.498 -21.969  1.00  0.00     0.026 C 
HETATM   13  C16 UNL     1      -5.814  45.919 -22.000  1.00  0.00     0.011 C 
HETATM   14  C17 UNL     1      -4.781  46.774 -21.207  1.00  0.00     0.014 C 
HETATM   15  C18 UNL     1      -4.758  48.270 -21.659  1.00  0.00     0.005 C 
HETATM   16  C25 UNL     1      -4.095  49.252 -20.622  1.00  0.00     0.034 C 
HETATM   17  C37 UNL     1      -4.809  50.613 -20.880  1.00  0.00     0.012 C 
HETATM   18  C38 UNL     1      -6.196  50.298 -21.470  1.00  0.00     0.044 C 
HETATM   19  C39 UNL     1      -6.270  48.769 -21.463  1.00  0.00     0.090 C 
ENDROOT
BRANCH  16  20
HETATM   20  C26 UNL     1      -2.588  49.382 -20.193  1.00  0.00     0.087 C 
HETATM   21  C27 UNL     1      -1.711  48.345 -20.910  1.00  0.00     0.049 C 
BRANCH  20  22
HETATM   22  O4  UNL     1      -2.596  48.982 -18.792  1.00  0.00    -0.387 OA
HETATM   23  H42 UNL     1      -2.830  48.037 -18.751  1.00  0.00     0.210 HD
ENDBRANCH  20  22
BRANCH  20  24
HETATM   24  C28 UNL     1      -1.967  50.819 -20.212  1.00  0.00     0.181 C 
BRANCH  24  25
HETATM   25  O5  UNL     1      -2.822  51.751 -20.873  1.00  0.00    -0.390 OA
HETATM   26  H44 UNL     1      -2.641  51.629 -21.826  1.00  0.00     0.210 HD
ENDBRANCH  24  25
BRANCH  24  27
HETATM   27  C29 UNL     1      -0.572  50.933 -20.883  1.00  0.00     0.158 C 
HETATM   28  O6  UNL     1      -0.764  51.282 -22.301  1.00  0.00    -0.373 OA
HETATM   29  C30 UNL     1       0.320  52.160 -22.630  1.00  0.00     0.185 C 
HETATM   30  C31 UNL     1       0.404  53.057 -21.417  1.00  0.00     0.027 C 
HETATM   31  C34 UNL     1       0.127  53.012 -23.890  1.00  0.00     0.383 C 
HETATM   32  C32 UNL     1       1.588  53.998 -21.563  1.00  0.00     0.038 C 
HETATM   33  C35 UNL     1       0.398  52.018 -20.312  1.00  0.00     0.020 C 
HETATM   34  C33 UNL     1       1.454  54.788 -22.880  1.00  0.00     0.273 C 
HETATM   35  N1  UNL     1       1.262  53.915 -24.042  1.00  0.00     0.114 N 
HETATM   36  H52 UNL     1       1.119  54.460 -24.890  1.00  0.00     0.319 HD
HETATM   37  C36 UNL     1       0.089  52.593 -18.939  1.00  0.00     0.013 C 
BRANCH  31  38
HETATM   38  O7  UNL     1       0.055  52.183 -25.035  1.00  0.00    -0.366 OA
HETATM   39  H54 UNL     1      -0.566  51.469 -24.798  1.00  0.00     0.212 HD
ENDBRANCH  31  38
ENDBRANCH  24  27
ENDBRANCH  20  24
ENDBRANCH  16  20
BRANCH  15  40
HETATM   40  C19 UNL     1      -4.260  48.332 -23.195  1.00  0.00    -0.002 C 
HETATM   41  C20 UNL     1      -2.874  49.014 -23.399  1.00  0.00     0.005 C 
HETATM   42  C21 UNL     1      -2.575  49.453 -24.837  1.00  0.00     0.000 C 
HETATM   43  C22 UNL     1      -3.202  48.509 -25.847  1.00  0.00     0.000 C 
HETATM   44  C23 UNL     1      -4.719  48.461 -25.699  1.00  0.00     0.000 C 
HETATM   45  C24 UNL     1      -5.225  48.810 -24.291  1.00  0.00     0.005 C 
ENDBRANCH  15  40
BRANCH  19  46
HETATM   46  O8  UNL     1      -6.728  48.479 -20.119  1.00  0.00    -0.384 OA
HETATM   47  H63 UNL     1      -7.665  48.734 -20.072  1.00  0.00     0.211 HD
ENDBRANCH  19  46
BRANCH   1  48
HETATM   48  O2  UNL     1     -11.926  44.932 -24.170  1.00  0.00    -0.386 OA
BRANCH  48  49
HETATM   49  C4  UNL     1     -12.805  44.843 -25.299  1.00  0.00     0.170 C 
BRANCH  49  50
HETATM   50  C3  UNL     1     -13.941  45.855 -25.158  1.00  0.00     0.052 C 
BRANCH  50  51
HETATM   51  C2  UNL     1     -14.219  46.586 -26.465  1.00  0.00     0.169 C 
BRANCH  51  52
HETATM   52  O1  UNL     1     -15.103  45.856 -27.315  1.00  0.00    -0.396 OA
HETATM   53  C1  UNL     1     -14.569  45.633 -28.616  1.00  0.00     0.201 C 
ENDBRANCH  51  52
ENDBRANCH  50  51
ENDBRANCH  49  50
ENDBRANCH  48  49
ENDBRANCH   1  48
TORSDOF 13
ENDMDL
