MODEL 1
REMARK minimizedAffinity -7.98242521
REMARK CNNscore 0.608613014
REMARK CNNaffinity 7.59053612
REMARK  19 active torsions:
REMARK  status: ('A' for Active; 'I' for Inactive)
REMARK    1  A    between atoms: C2_2  and  C3_3 
REMARK    2  A    between atoms: C3_3  and  C4_4 
REMARK    3  A    between atoms: C4_4  and  S1_5 
REMARK    4  A    between atoms: C4_4  and  C15_25 
REMARK    5  A    between atoms: S1_5  and  C5_6 
REMARK    6  A    between atoms: C5_6  and  C6_7 
REMARK    7  A    between atoms: C6_7  and  N1_8 
REMARK    8  A    between atoms: C6_7  and  C12_18 
REMARK       I    between atoms: N1_8  and  C7_9 
REMARK    9  A    between atoms: C7_9  and  C8_11 
REMARK   10  A    between atoms: C8_11  and  C9_12 
REMARK   11  A    between atoms: C9_12  and  C10_13 
REMARK   12  A    between atoms: C10_13  and  N2_14 
REMARK   13  A    between atoms: C10_13  and  C11_15 
REMARK   14  A    between atoms: C11_15  and  O3_17 
REMARK       I    between atoms: C12_18  and  N3_20 
REMARK   15  A    between atoms: N3_20  and  C13_21 
REMARK   16  A    between atoms: C13_21  and  C14_22 
REMARK   17  A    between atoms: C14_22  and  O6_24 
REMARK   18  A    between atoms: C19_29  and  C20_30 
REMARK   19  A    between atoms: C20_30  and  C21_31 
ROOT
HETATM    1  S1  UNL     1      -2.831  50.896 -17.701  1.00  0.00    -0.154 SA
ENDROOT
BRANCH   1   2
HETATM    2  C4  UNL     1      -2.745  50.800 -19.552  1.00  0.00     0.113 C 
BRANCH   2   3
HETATM    3  C3  UNL     1      -3.405  49.573 -20.310  1.00  0.00    -0.022 C 
HETATM    4  C30 UNL     1      -4.043  49.930 -21.682  1.00  0.00     0.011 C 
HETATM    5  C31 UNL     1      -5.453  49.353 -21.671  1.00  0.00     0.001 C 
HETATM    6  C32 UNL     1      -5.868  49.465 -20.220  1.00  0.00     0.001 C 
HETATM    7  C33 UNL     1      -4.614  49.047 -19.464  1.00  0.00     0.011 C 
BRANCH   3   8
HETATM    8  C2  UNL     1      -2.336  48.445 -20.469  1.00  0.00     0.006 C 
HETATM    9  C1  UNL     1      -2.405  47.268 -19.497  1.00  0.00     0.006 C 
ENDBRANCH   3   8
ENDBRANCH   2   3
BRANCH   2  10
HETATM   10  C15 UNL     1      -1.353  51.224 -19.985  1.00  0.00     0.075 C 
HETATM   11  C16 UNL     1      -0.769  51.058 -21.171  1.00  0.00    -0.031 C 
HETATM   12  C17 UNL     1      -1.257  50.520 -22.472  1.00  0.00     0.042 C 
HETATM   13  C28 UNL     1       0.565  51.707 -21.176  1.00  0.00     0.140 C 
HETATM   14  C18 UNL     1      -1.258  51.647 -23.522  1.00  0.00     0.038 C 
HETATM   15  C19 UNL     1      -0.098  52.631 -23.413  1.00  0.00    -0.078 C 
HETATM   16  C27 UNL     1       0.724  52.641 -22.341  1.00  0.00    -0.005 C 
HETATM   17  C29 UNL     1       0.516  52.381 -19.810  1.00  0.00     0.275 C 
HETATM   18  O7  UNL     1       1.354  53.158 -19.368  1.00  0.00    -0.264 OA
HETATM   19  O8  UNL     1      -0.577  51.962 -19.082  1.00  0.00    -0.281 OA
BRANCH  15  20
HETATM   20  C20 UNL     1       0.081  53.601 -24.564  1.00  0.00     0.072 C 
BRANCH  20  21
HETATM   21  C21 UNL     1       0.525  52.937 -25.848  1.00  0.00    -0.054 A 
HETATM   22  C22 UNL     1      -0.144  53.198 -27.053  1.00  0.00     0.007 A 
HETATM   23  C23 UNL     1       0.287  52.612 -28.244  1.00  0.00     0.001 A 
HETATM   24  C24 UNL     1       1.388  51.760 -28.241  1.00  0.00     0.000 A 
HETATM   25  C25 UNL     1       2.061  51.489 -27.049  1.00  0.00     0.001 A 
HETATM   26  C26 UNL     1       1.630  52.073 -25.858  1.00  0.00     0.007 A 
ENDBRANCH  20  21
ENDBRANCH  15  20
ENDBRANCH   2  10
ENDBRANCH   1   2
BRANCH   1  27
HETATM   27  C5  UNL     1      -1.415  49.873 -17.164  1.00  0.00     0.109 C 
BRANCH  27  28
HETATM   28  C6  UNL     1      -0.684  50.455 -15.937  1.00  0.00     0.185 C 
BRANCH  28  29
HETATM   29  N1  UNL     1       0.683  50.854 -16.323  1.00  0.00    -0.347 N 
HETATM   30  C7  UNL     1       1.275  51.994 -15.820  1.00  0.00     0.218 C 
HETATM   31  O1  UNL     1       0.716  52.775 -15.062  1.00  0.00    -0.274 OA
HETATM   32  H10 UNL     1       1.259  50.170 -16.804  1.00  0.00     0.163 HD
BRANCH  30  33
HETATM   33  C8  UNL     1       2.697  52.208 -16.296  1.00  0.00     0.105 C 
BRANCH  33  34
HETATM   34  C9  UNL     1       3.727  51.610 -15.330  1.00  0.00     0.056 C 
BRANCH  34  35
HETATM   35  C10 UNL     1       3.134  51.126 -13.999  1.00  0.00     0.315 C 
BRANCH  35  36
HETATM   36  N2  UNL     1       3.155  52.211 -12.997  1.00  0.00     0.093 N 
HETATM   37  H16 UNL     1       2.848  53.083 -13.434  1.00  0.00     0.314 HD
HETATM   38  H17 UNL     1       4.123  52.358 -12.699  1.00  0.00     0.314 HD
ENDBRANCH  35  36
BRANCH  35  39
HETATM   39  C11 UNL     1       3.895  49.903 -13.477  1.00  0.00     0.173 C 
HETATM   40  O2  UNL     1       5.093  49.871 -13.226  1.00  0.00    -0.648 OA
BRANCH  39  41
HETATM   41  O3  UNL     1       3.105  48.840 -13.216  1.00  0.00    -0.775 OA
HETATM   42  H18 UNL     1       3.718  48.130 -12.932  1.00  0.00     0.167 HD
ENDBRANCH  39  41
ENDBRANCH  35  39
ENDBRANCH  34  35
ENDBRANCH  33  34
ENDBRANCH  30  33
ENDBRANCH  28  29
BRANCH  28  43
HETATM   43  C12 UNL     1      -0.667  49.419 -14.784  1.00  0.00     0.241 C 
HETATM   44  O4  UNL     1       0.220  49.385 -13.931  1.00  0.00    -0.271 OA
HETATM   45  N3  UNL     1      -1.675  48.477 -14.804  1.00  0.00    -0.349 N 
HETATM   46  H19 UNL     1      -2.518  48.679 -15.329  1.00  0.00     0.163 HD
BRANCH  45  47
HETATM   47  C13 UNL     1      -1.802  47.520 -13.717  1.00  0.00     0.232 C 
BRANCH  47  48
HETATM   48  C14 UNL     1      -2.799  47.941 -12.642  1.00  0.00     0.158 C 
HETATM   49  O5  UNL     1      -2.575  47.969 -11.440  1.00  0.00    -0.649 OA
BRANCH  48  50
HETATM   50  O6  UNL     1      -4.026  48.278 -13.098  1.00  0.00    -0.775 OA
HETATM   51  H22 UNL     1      -4.480  48.591 -12.287  1.00  0.00     0.167 HD
ENDBRANCH  48  50
ENDBRANCH  47  48
ENDBRANCH  45  47
ENDBRANCH  28  43
ENDBRANCH  27  28
ENDBRANCH   1  27
TORSDOF 19
ENDMDL
