MODEL 1
REMARK minimizedAffinity -8.48302937
REMARK  13 active torsions:
REMARK  status: ('A' for Active; 'I' for Inactive)
REMARK    1  A    between atoms: C2_2  and  C3_3 
REMARK    2  A    between atoms: C3_3  and  C5_5 
REMARK    3  A    between atoms: C3_3  and  O3_18 
REMARK    4  A    between atoms: C5_5  and  C6_6 
REMARK    5  A    between atoms: C7_7  and  C8_8 
REMARK    6  A    between atoms: C12_12  and  C13_13 
REMARK    7  A    between atoms: C13_13  and  O1_16 
REMARK    8  A    between atoms: O3_18  and  C16_19 
REMARK    9  A    between atoms: C17_21  and  C18_22 
REMARK   10  A    between atoms: C18_22  and  O5_23 
REMARK   11  A    between atoms: C19_24  and  O6_25 
REMARK   12  A    between atoms: C20_26  and  O7_27 
REMARK   13  A    between atoms: C21_28  and  O8_29 
ROOT
HETATM    1  C3  UNL     1       9.084  62.305 -34.566  1.00  0.00     0.081 C 
HETATM    2  C4  UNL     1       8.317  60.974 -34.446  1.00  0.00     0.051 C 
ENDROOT
BRANCH   1   3
HETATM    3  C2  UNL     1       9.907  62.493 -33.296  1.00  0.00     0.001 C 
HETATM    4  C1  UNL     1      10.196  61.598 -32.340  1.00  0.00     0.010 C 
ENDBRANCH   1   3
BRANCH   1   5
HETATM    5  C5  UNL     1       9.896  62.387 -35.901  1.00  0.00     0.068 C 
BRANCH   5   6
HETATM    6  C6  UNL     1      11.254  63.049 -35.993  1.00  0.00    -0.024 C 
HETATM    7  C7  UNL     1      12.410  62.557 -36.474  1.00  0.00     0.006 C 
BRANCH   7   8
HETATM    8  C8  UNL     1      13.723  63.302 -36.573  1.00  0.00     0.075 C 
HETATM    9  C9  UNL     1      13.452  64.807 -36.675  1.00  0.00     0.050 C 
HETATM   10  C10 UNL     1      14.563  62.788 -37.744  1.00  0.00     0.044 C 
HETATM   11  C11 UNL     1      15.976  62.996 -37.252  1.00  0.00     0.038 C 
HETATM   12  C12 UNL     1      15.842  62.657 -35.774  1.00  0.00     0.156 C 
HETATM   13  O2  UNL     1      14.523  63.096 -35.394  1.00  0.00    -0.368 OA
BRANCH  12  14
HETATM   14  C13 UNL     1      16.926  63.260 -34.842  1.00  0.00     0.076 C 
HETATM   15  C14 UNL     1      17.491  64.562 -35.421  1.00  0.00     0.048 C 
HETATM   16  C15 UNL     1      18.066  62.259 -34.623  1.00  0.00     0.048 C 
BRANCH  14  17
HETATM   17  O1  UNL     1      16.392  63.553 -33.542  1.00  0.00    -0.388 OA
HETATM   18  H25 UNL     1      15.771  64.294 -33.618  1.00  0.00     0.210 HD
ENDBRANCH  14  17
ENDBRANCH  12  14
ENDBRANCH   7   8
ENDBRANCH   5   6
ENDBRANCH   1   5
BRANCH   1  19
HETATM   19  O3  UNL     1       8.187  63.440 -34.497  1.00  0.00    -0.344 OA
BRANCH  19  20
HETATM   20  C16 UNL     1       6.780  63.186 -34.528  1.00  0.00     0.293 C 
HETATM   21  O4  UNL     1       6.207  63.718 -33.332  1.00  0.00    -0.348 OA
HETATM   22  C17 UNL     1       4.773  63.806 -33.355  1.00  0.00     0.179 C 
HETATM   23  C19 UNL     1       4.341  64.886 -34.369  1.00  0.00     0.180 C 
HETATM   24  C20 UNL     1       5.437  65.159 -35.421  1.00  0.00     0.183 C 
HETATM   25  C21 UNL     1       6.219  63.890 -35.795  1.00  0.00     0.204 C 
BRANCH  22  26
HETATM   26  C18 UNL     1       4.073  62.442 -33.512  1.00  0.00     0.198 C 
BRANCH  26  27
HETATM   27  O5  UNL     1       3.226  62.201 -32.386  1.00  0.00    -0.398 OA
HETATM   28  H30 UNL     1       2.875  61.299 -32.484  1.00  0.00     0.209 HD
ENDBRANCH  26  27
ENDBRANCH  22  26
BRANCH  23  29
HETATM   29  O6  UNL     1       3.095  64.564 -34.991  1.00  0.00    -0.390 OA
HETATM   30  H32 UNL     1       2.805  65.356 -35.479  1.00  0.00     0.210 HD
ENDBRANCH  23  29
BRANCH  24  31
HETATM   31  O7  UNL     1       6.330  66.173 -34.945  1.00  0.00    -0.390 OA
HETATM   32  H34 UNL     1       6.822  65.795 -34.187  1.00  0.00     0.210 HD
ENDBRANCH  24  31
BRANCH  25  33
HETATM   33  O8  UNL     1       5.375  62.986 -36.527  1.00  0.00    -0.388 OA
HETATM   34  H36 UNL     1       5.113  63.436 -37.350  1.00  0.00     0.210 HD
ENDBRANCH  25  33
ENDBRANCH  19  20
ENDBRANCH   1  19
TORSDOF 13
ENDMDL
