MODEL 1
REMARK minimizedAffinity -10.2964249
REMARK  9 active torsions:
REMARK  status: ('A' for Active; 'I' for Inactive)
REMARK    1  A    between atoms: C2_2  and  C3_3 
REMARK    2  A    between atoms: C2_2  and  C27_31 
REMARK    3  A    between atoms: C3_3  and  C4_4 
REMARK    4  A    between atoms: C4_4  and  C5_5 
REMARK    5  A    between atoms: C5_5  and  C7_7 
REMARK    6  A    between atoms: C22_24  and  O3_26 
REMARK    7  A    between atoms: C26_29  and  O4_30 
REMARK    8  A    between atoms: C27_31  and  C29_33 
REMARK    9  A    between atoms: C29_33  and  O6_35 
ROOT
HETATM    1  C7  UNL     1      -1.863   5.514  12.355  1.00  0.00    -0.002 C 
HETATM    2  C8  UNL     1      -2.399   4.229  11.659  1.00  0.00     0.006 C 
HETATM    3  C9  UNL     1      -3.883   4.103  12.022  1.00  0.00     0.010 C 
HETATM    4  C10 UNL     1      -4.235   5.465  12.616  1.00  0.00     0.027 C 
HETATM    5  C11 UNL     1      -5.532   5.717  13.363  1.00  0.00    -0.036 C 
HETATM    6  C12 UNL     1      -5.644   6.754  14.234  1.00  0.00     0.002 C 
HETATM    7  C13 UNL     1      -4.385   7.518  14.601  1.00  0.00     0.157 C 
HETATM    8  O1  UNL     1      -4.376   8.322  15.531  1.00  0.00    -0.293 OA
HETATM    9  C14 UNL     1      -3.107   7.286  13.812  1.00  0.00     0.093 C 
HETATM   10  C15 UNL     1      -2.962   5.816  13.422  1.00  0.00    -0.026 C 
HETATM   11  C16 UNL     1      -2.784   4.940  14.688  1.00  0.00     0.016 C 
HETATM   12  C17 UNL     1      -6.990   7.170  14.887  1.00  0.00    -0.006 C 
HETATM   13  C18 UNL     1      -6.987   6.558  16.307  1.00  0.00     0.021 C 
HETATM   14  C19 UNL     1      -7.171   8.716  14.979  1.00  0.00     0.022 C 
HETATM   15  C20 UNL     1      -8.526   9.154  15.518  1.00  0.00     0.083 C 
HETATM   16  C21 UNL     1      -9.656   8.561  14.720  1.00  0.00     0.161 C 
HETATM   17  O2  UNL     1     -10.618   9.257  14.390  1.00  0.00    -0.295 OA
HETATM   18  C22 UNL     1      -9.602   7.045  14.454  1.00  0.00     0.119 C 
HETATM   19  C23 UNL     1     -10.677   6.682  13.415  1.00  0.00     0.055 C 
HETATM   20  C24 UNL     1      -8.175   6.661  13.968  1.00  0.00     0.043 C 
HETATM   21  C25 UNL     1      -8.020   5.160  13.712  1.00  0.00     0.045 C 
HETATM   22  C26 UNL     1      -6.713   4.854  12.982  1.00  0.00     0.148 C 
ENDROOT
BRANCH   1  23
HETATM   23  C5  UNL     1      -0.378   5.359  12.803  1.00  0.00    -0.014 C 
HETATM   24  C6  UNL     1       0.123   6.606  13.543  1.00  0.00     0.010 C 
BRANCH  23  25
HETATM   25  C4  UNL     1       0.540   5.082  11.578  1.00  0.00     0.009 C 
BRANCH  25  26
HETATM   26  C3  UNL     1       1.519   6.220  11.237  1.00  0.00     0.034 C 
BRANCH  26  27
HETATM   27  C2  UNL     1       1.192   7.052  10.010  1.00  0.00    -0.075 C 
HETATM   28  C1  UNL     1       0.392   8.129  10.133  1.00  0.00     0.015 C 
BRANCH  27  29
HETATM   29  C27 UNL     1       1.831   6.604   8.696  1.00  0.00     0.107 C 
HETATM   30  C28 UNL     1       2.032   7.693   7.637  1.00  0.00     0.026 C 
BRANCH  29  31
HETATM   31  C29 UNL     1       3.182   5.960   8.975  1.00  0.00     0.147 C 
HETATM   32  O5  UNL     1       3.501   4.795   8.793  1.00  0.00    -0.650 OA
BRANCH  31  33
HETATM   33  O6  UNL     1       4.081   6.835   9.475  1.00  0.00    -0.776 OA
HETATM   34  H42 UNL     1       4.889   6.292   9.593  1.00  0.00     0.167 HD
ENDBRANCH  31  33
ENDBRANCH  29  31
ENDBRANCH  27  29
ENDBRANCH  26  27
ENDBRANCH  25  26
ENDBRANCH  23  25
ENDBRANCH   1  23
BRANCH  22  35
HETATM   35  O4  UNL     1      -6.411   3.487  13.231  1.00  0.00    -0.391 OA
HETATM   36  H37 UNL     1      -6.211   3.400  14.179  1.00  0.00     0.210 HD
ENDBRANCH  22  35
BRANCH  18  37
HETATM   37  O3  UNL     1      -9.919   6.345  15.653  1.00  0.00    -0.382 OA
HETATM   38  H32 UNL     1     -10.843   6.560  15.882  1.00  0.00     0.211 HD
ENDBRANCH  18  37
TORSDOF 9
ENDMDL
