MODEL 1
REMARK minimizedAffinity -6.8015871
REMARK CNNscore 0.391664207
REMARK CNNaffinity 6.55315924
REMARK  12 active torsions:
REMARK  status: ('A' for Active; 'I' for Inactive)
REMARK    1  A    between atoms: C4_4  and  C5_5 
REMARK    2  A    between atoms: C5_5  and  O1_6 
REMARK    3  A    between atoms: C5_5  and  C6_7 
REMARK    4  A    between atoms: C6_7  and  C7_8 
REMARK    5  A    between atoms: C9_11  and  C10_12 
REMARK    6  A    between atoms: C18_20  and  O3_21 
REMARK    7  A    between atoms: O3_21  and  C19_22 
REMARK    8  A    between atoms: C20_24  and  C21_25 
REMARK    9  A    between atoms: C21_25  and  O5_26 
REMARK   10  A    between atoms: C22_27  and  O6_28 
REMARK   11  A    between atoms: C23_29  and  O7_30 
REMARK   12  A    between atoms: C24_31  and  O8_32 
ROOT
HETATM    1  C10 UNL     1     -16.694   6.662  19.619  1.00  0.00     0.029 C 
HETATM    2  C11 UNL     1     -15.867   7.017  18.340  1.00  0.00     0.009 C 
HETATM    3  C12 UNL     1     -16.465   6.495  17.019  1.00  0.00     0.007 C 
HETATM    4  C13 UNL     1     -17.316   5.246  17.270  1.00  0.00     0.003 C 
HETATM    5  C14 UNL     1     -17.485   4.215  16.081  1.00  0.00    -0.035 C 
HETATM    6  C15 UNL     1     -18.280   4.826  14.909  1.00  0.00     0.016 C 
HETATM    7  C16 UNL     1     -16.081   3.810  15.533  1.00  0.00     0.012 C 
HETATM    8  C17 UNL     1     -16.092   2.594  14.604  1.00  0.00     0.034 C 
HETATM    9  C18 UNL     1     -16.747   1.364  15.239  1.00  0.00     0.133 C 
HETATM   10  C25 UNL     1     -18.185   1.656  15.782  1.00  0.00    -0.017 C 
HETATM   11  C26 UNL     1     -18.628   0.408  16.599  1.00  0.00     0.018 C 
HETATM   12  C27 UNL     1     -19.204   1.790  14.631  1.00  0.00     0.018 C 
HETATM   13  C28 UNL     1     -18.117   2.915  16.719  1.00  0.00     0.004 C 
HETATM   14  C29 UNL     1     -19.407   3.218  17.508  1.00  0.00     0.007 C 
HETATM   15  C30 UNL     1     -19.194   4.282  18.604  1.00  0.00     0.011 C 
HETATM   16  C31 UNL     1     -18.616   5.629  18.082  1.00  0.00    -0.029 C 
HETATM   17  C32 UNL     1     -19.728   6.270  17.208  1.00  0.00     0.016 C 
HETATM   18  C33 UNL     1     -18.244   6.656  19.284  1.00  0.00     0.004 C 
HETATM   19  C34 UNL     1     -19.147   6.497  20.520  1.00  0.00     0.190 C 
HETATM   20  O9  UNL     1     -19.036   7.713  21.265  1.00  0.00    -0.321 OA
HETATM   21  C35 UNL     1     -18.755   8.721  20.392  1.00  0.00     0.259 C 
HETATM   22  O10 UNL     1     -18.670   9.898  20.695  1.00  0.00    -0.265 OA
HETATM   23  C36 UNL     1     -18.609   8.152  19.009  1.00  0.00     0.124 C 
ENDROOT
BRANCH   9  24
HETATM   24  O3  UNL     1     -16.823   0.276  14.311  1.00  0.00    -0.352 OA
BRANCH  24  25
HETATM   25  C19 UNL     1     -15.599  -0.420  14.095  1.00  0.00     0.292 C 
HETATM   26  O4  UNL     1     -15.388  -0.648  12.697  1.00  0.00    -0.348 OA
HETATM   27  C20 UNL     1     -16.250  -1.624  12.097  1.00  0.00     0.179 C 
HETATM   28  C22 UNL     1     -16.164  -2.980  12.825  1.00  0.00     0.180 C 
HETATM   29  C23 UNL     1     -16.420  -2.841  14.335  1.00  0.00     0.183 C 
HETATM   30  C24 UNL     1     -15.545  -1.723  14.926  1.00  0.00     0.204 C 
BRANCH  27  31
HETATM   31  C21 UNL     1     -17.684  -1.121  11.891  1.00  0.00     0.198 C 
BRANCH  31  32
HETATM   32  O5  UNL     1     -17.771  -0.377  10.674  1.00  0.00    -0.398 OA
HETATM   33  H34 UNL     1     -18.690  -0.058  10.615  1.00  0.00     0.209 HD
ENDBRANCH  31  32
ENDBRANCH  27  31
BRANCH  28  34
HETATM   34  O6  UNL     1     -14.834  -3.517  12.661  1.00  0.00    -0.390 OA
HETATM   35  H36 UNL     1     -14.688  -3.632  11.702  1.00  0.00     0.210 HD
ENDBRANCH  28  34
BRANCH  29  36
HETATM   36  O7  UNL     1     -17.802  -2.632  14.615  1.00  0.00    -0.390 OA
HETATM   37  H38 UNL     1     -18.280  -3.435  14.337  1.00  0.00     0.210 HD
ENDBRANCH  29  36
BRANCH  30  38
HETATM   38  O8  UNL     1     -14.178  -2.182  15.002  1.00  0.00    -0.388 OA
HETATM   39  H40 UNL     1     -13.983  -2.591  14.131  1.00  0.00     0.210 HD
ENDBRANCH  30  38
ENDBRANCH  24  25
ENDBRANCH   9  24
BRANCH   1  40
HETATM   40  C9  UNL     1     -16.104   5.416  20.263  1.00  0.00     0.162 A 
HETATM   41  C7  UNL     1     -15.303   5.471  21.570  1.00  0.00     0.087 A 
HETATM   42  C8  UNL     1     -15.224   6.706  22.424  1.00  0.00     0.049 C 
HETATM   43  O2  UNL     1     -16.644   4.960  21.499  1.00  0.00    -0.369 OA
BRANCH  41  44
HETATM   44  C6  UNL     1     -14.266   4.394  21.815  1.00  0.00     0.076 C 
BRANCH  44  45
HETATM   45  C5  UNL     1     -14.293   3.783  23.227  1.00  0.00     0.144 C 
BRANCH  45  46
HETATM   46  C4  UNL     1     -13.123   2.887  23.552  1.00  0.00     0.006 C 
HETATM   47  C2  UNL     1     -12.625   2.461  24.731  1.00  0.00    -0.089 C 
HETATM   48  C1  UNL     1     -11.392   1.590  24.764  1.00  0.00     0.042 C 
HETATM   49  C3  UNL     1     -13.217   2.728  26.087  1.00  0.00     0.042 C 
ENDBRANCH  45  46
BRANCH  45  50
HETATM   50  O1  UNL     1     -15.545   3.158  23.478  1.00  0.00    -0.392 OA
HETATM   51  H9  UNL     1     -15.475   2.760  24.363  1.00  0.00     0.210 HD
ENDBRANCH  45  50
ENDBRANCH  44  45
ENDBRANCH  41  44
ENDBRANCH   1  40
TORSDOF 12
ENDMDL
