MODEL 1
REMARK minimizedAffinity -7.49390268
REMARK CNNscore 0.707609177
REMARK CNNaffinity 7.1541543
REMARK  6 active torsions:
REMARK  status: ('A' for Active; 'I' for Inactive)
REMARK    1  A    between atoms: C4_4  and  C5_5 
REMARK    2  A    between atoms: C5_5  and  O1_6 
REMARK    3  A    between atoms: C5_5  and  C6_7 
REMARK    4  A    between atoms: C6_7  and  C7_8 
REMARK    5  A    between atoms: C7_8  and  C9_10 
REMARK    6  A    between atoms: C30_32  and  O3_33 
ROOT
HETATM    1  C9  UNL     1      -9.605   6.711  14.443  1.00  0.00    -0.002 C 
HETATM    2  C10 UNL     1      -9.982   6.559  12.941  1.00  0.00     0.007 C 
HETATM    3  C11 UNL     1     -11.042   7.622  12.620  1.00  0.00     0.015 C 
HETATM    4  C12 UNL     1     -11.576   8.088  13.986  1.00  0.00    -0.010 C 
HETATM    5  C13 UNL     1     -12.620   7.020  14.443  1.00  0.00     0.021 C 
HETATM    6  C14 UNL     1     -12.317   9.429  14.129  1.00  0.00    -0.039 C 
HETATM    7  C15 UNL     1     -12.305  10.079  15.324  1.00  0.00    -0.066 C 
HETATM    8  C16 UNL     1     -11.448   9.558  16.492  1.00  0.00     0.036 C 
HETATM    9  C17 UNL     1     -10.605   8.289  16.280  1.00  0.00     0.015 C 
HETATM   10  C18 UNL     1     -10.229   8.095  14.812  1.00  0.00    -0.029 C 
HETATM   11  C19 UNL     1      -9.258   9.237  14.382  1.00  0.00     0.016 C 
HETATM   12  C20 UNL     1     -13.138  11.377  15.604  1.00  0.00    -0.015 C 
HETATM   13  C21 UNL     1     -13.817  11.205  16.987  1.00  0.00     0.020 C 
HETATM   14  C22 UNL     1     -12.142  12.566  15.641  1.00  0.00     0.021 C 
HETATM   15  C23 UNL     1     -12.803  13.924  15.798  1.00  0.00     0.080 C 
HETATM   16  C24 UNL     1     -13.817  14.157  14.706  1.00  0.00     0.135 C 
HETATM   17  O2  UNL     1     -13.795  15.202  14.053  1.00  0.00    -0.297 OA
HETATM   18  C25 UNL     1     -14.909  13.096  14.517  1.00  0.00     0.018 C 
HETATM   19  C26 UNL     1     -15.952  13.279  15.641  1.00  0.00     0.023 C 
HETATM   20  C27 UNL     1     -15.671  13.398  13.201  1.00  0.00     0.023 C 
HETATM   21  C28 UNL     1     -14.249  11.648  14.503  1.00  0.00     0.016 C 
HETATM   22  C29 UNL     1     -13.664  11.334  13.114  1.00  0.00     0.043 C 
HETATM   23  C30 UNL     1     -13.150   9.906  12.970  1.00  0.00     0.148 C 
ENDROOT
BRANCH   1  24
HETATM   24  C7  UNL     1      -8.088   6.426  14.692  1.00  0.00    -0.011 C 
HETATM   25  C8  UNL     1      -7.853   5.611  15.965  1.00  0.00     0.010 C 
BRANCH  24  26
HETATM   26  C6  UNL     1      -7.474   5.717  13.443  1.00  0.00     0.040 C 
BRANCH  26  27
HETATM   27  C5  UNL     1      -7.167   4.219  13.614  1.00  0.00     0.141 C 
BRANCH  27  28
HETATM   28  C4  UNL     1      -6.241   3.714  12.533  1.00  0.00     0.006 C 
HETATM   29  C2  UNL     1      -4.926   3.991  12.408  1.00  0.00    -0.089 C 
HETATM   30  C1  UNL     1      -4.143   4.852  13.364  1.00  0.00     0.042 C 
HETATM   31  C3  UNL     1      -4.118   3.425  11.270  1.00  0.00     0.042 C 
ENDBRANCH  27  28
BRANCH  27  32
HETATM   32  O1  UNL     1      -8.380   3.478  13.530  1.00  0.00    -0.392 OA
HETATM   33  H9  UNL     1      -8.480   3.176  12.612  1.00  0.00     0.210 HD
ENDBRANCH  27  32
ENDBRANCH  26  27
ENDBRANCH  24  26
ENDBRANCH   1  24
BRANCH  23  34
HETATM   34  O3  UNL     1     -12.396   9.882  11.764  1.00  0.00    -0.391 OA
HETATM   35  H48 UNL     1     -12.975  10.190  11.048  1.00  0.00     0.210 HD
ENDBRANCH  23  34
TORSDOF 6
ENDMDL
