MODEL 1
REMARK minimizedAffinity -10.1533518
REMARK CNNscore 0.463379711
REMARK CNNaffinity 7.50216532
REMARK  13 active torsions:
REMARK  status: ('A' for Active; 'I' for Inactive)
REMARK    1  A    between atoms: C5_6  and  C6_7 
REMARK    2  A    between atoms: C5_6  and  C29_33 
REMARK    3  A    between atoms: C19_20  and  O2_21 
REMARK    4  A    between atoms: C28_31  and  O4_32 
REMARK    5  A    between atoms: C30_35  and  C31_36 
REMARK    6  A    between atoms: C31_36  and  O6_38 
REMARK    7  A    between atoms: C31_36  and  C33_39 
REMARK    8  A    between atoms: C33_39  and  C35_41 
REMARK    9  A    between atoms: C33_39  and  C36_43 
REMARK   10  A    between atoms: C35_41  and  O7_42 
REMARK   11  A    between atoms: C36_43  and  C37_44 
REMARK   12  A    between atoms: C37_44  and  C38_45 
REMARK   13  A    between atoms: C41_49  and  N2_50 
ROOT
HETATM    1  C1  UNL     1      -3.694  11.557  18.946  1.00  0.00     0.010 C 
HETATM    2  C2  UNL     1      -3.034  11.046  17.664  1.00  0.00    -0.014 C 
HETATM    3  C3  UNL     1      -3.187  12.060  16.533  1.00  0.00     0.030 C 
HETATM    4  C4  UNL     1      -2.447  11.570  15.300  1.00  0.00     0.169 C 
HETATM    5  O1  UNL     1      -1.068  11.351  15.564  1.00  0.00    -0.377 OA
HETATM    6  C5  UNL     1      -0.762  10.405  16.606  1.00  0.00     0.094 C 
HETATM    7  C43 UNL     1      -1.545  10.758  17.891  1.00  0.00     0.045 C 
ENDROOT
BRANCH   6   8
HETATM    8  C6  UNL     1       0.794  10.496  16.871  1.00  0.00     0.035 C 
HETATM    9  C7  UNL     1       1.587  11.099  15.628  1.00  0.00     0.016 C 
HETATM   10  C8  UNL     1       2.702  11.976  16.211  1.00  0.00     0.026 C 
HETATM   11  C9  UNL     1       4.045  12.067  15.508  1.00  0.00     0.013 C 
HETATM   12  C28 UNL     1       2.873  11.383  17.598  1.00  0.00     0.094 C 
HETATM   13  C10 UNL     1       5.019  12.914  16.369  1.00  0.00     0.043 C 
HETATM   14  C11 UNL     1       4.890  12.738  17.878  1.00  0.00    -0.006 C 
HETATM   15  C12 UNL     1       3.871  12.075  18.454  1.00  0.00    -0.030 C 
HETATM   16  C22 UNL     1       6.045  13.161  18.724  1.00  0.00     0.161 C 
HETATM   17  C13 UNL     1       3.815  11.698  19.905  1.00  0.00     0.031 C 
HETATM   18  C14 UNL     1       2.388  11.383  20.463  1.00  0.00    -0.005 C 
HETATM   19  C23 UNL     1       4.567  12.690  20.836  1.00  0.00    -0.022 C 
HETATM   20  C15 UNL     1       2.512  10.717  21.848  1.00  0.00     0.006 C 
HETATM   21  C25 UNL     1       1.495  10.568  19.482  1.00  0.00     0.018 C 
HETATM   22  C16 UNL     1       3.410  11.513  22.818  1.00  0.00     0.006 C 
HETATM   23  C17 UNL     1       4.753  11.880  22.162  1.00  0.00    -0.003 C 
HETATM   24  C18 UNL     1       5.754  12.561  23.090  1.00  0.00     0.037 C 
HETATM   25  C19 UNL     1       7.140  12.660  22.420  1.00  0.00     0.119 C 
HETATM   26  C20 UNL     1       7.121  12.416  20.900  1.00  0.00     0.045 C 
HETATM   27  C21 UNL     1       5.940  13.150  20.250  1.00  0.00     0.072 C 
HETATM   28  C26 UNL     1       1.411  11.286  18.103  1.00  0.00    -0.002 C 
HETATM   29  C27 UNL     1       0.729  12.668  18.290  1.00  0.00     0.019 C 
HETATM   30  C24 UNL     1       3.762  14.006  21.057  1.00  0.00     0.017 C 
HETATM   31  O3  UNL     1       7.086  13.524  18.172  1.00  0.00    -0.292 OA
BRANCH  25  32
HETATM   32  O2  UNL     1       7.656  13.964  22.690  1.00  0.00    -0.396 OA
HETATM   33  H27 UNL     1       8.543  14.020  22.295  1.00  0.00     0.210 HD
ENDBRANCH  25  32
BRANCH  12  34
HETATM   34  O4  UNL     1       3.395  10.038  17.465  1.00  0.00    -0.384 OA
HETATM   35  H39 UNL     1       4.359  10.090  17.341  1.00  0.00     0.211 HD
ENDBRANCH  12  34
ENDBRANCH   6   8
BRANCH   6  36
HETATM   36  C29 UNL     1      -1.059   8.994  16.068  1.00  0.00     0.189 A 
HETATM   37  O5  UNL     1      -1.830   8.208  16.999  1.00  0.00    -0.369 OA
HETATM   38  C30 UNL     1      -2.419   8.376  15.702  1.00  0.00     0.189 A 
BRANCH  38  39
HETATM   39  C31 UNL     1      -2.593   7.030  14.992  1.00  0.00     0.092 C 
HETATM   40  C32 UNL     1      -3.734   6.274  15.706  1.00  0.00     0.049 C 
BRANCH  39  41
HETATM   41  O6  UNL     1      -1.410   6.236  15.223  1.00  0.00    -0.387 OA
HETATM   42  H45 UNL     1      -1.183   6.381  16.166  1.00  0.00     0.210 HD
ENDBRANCH  39  41
BRANCH  39  43
HETATM   43  C33 UNL     1      -2.773   7.161  13.424  1.00  0.00     0.011 C 
HETATM   44  C34 UNL     1      -1.464   6.768  12.691  1.00  0.00     0.020 C 
BRANCH  43  45
HETATM   45  C35 UNL     1      -3.088   8.618  12.985  1.00  0.00     0.176 C 
BRANCH  45  46
HETATM   46  O7  UNL     1      -1.980   9.234  12.352  1.00  0.00    -0.400 OA
HETATM   47  H51 UNL     1      -1.774  10.058  12.835  1.00  0.00     0.209 HD
ENDBRANCH  45  46
ENDBRANCH  43  45
BRANCH  43  48
HETATM   48  C36 UNL     1      -3.928   6.251  12.863  1.00  0.00     0.019 C 
BRANCH  48  49
HETATM   49  C37 UNL     1      -3.526   4.863  12.344  1.00  0.00     0.039 C 
BRANCH  49  50
HETATM   50  C38 UNL     1      -4.712   3.927  12.254  1.00  0.00    -0.053 A 
HETATM   51  C39 UNL     1      -4.651   2.776  11.469  1.00  0.00     0.024 A 
HETATM   52  C40 UNL     1      -5.753   1.936  11.414  1.00  0.00     0.090 A 
HETATM   53  N1  UNL     1      -6.858   2.230  12.115  1.00  0.00    -0.353 N 
HETATM   54  C41 UNL     1      -6.963   3.310  12.900  1.00  0.00     0.098 A 
HETATM   55  H58 UNL     1      -7.664   1.616  12.045  1.00  0.00     0.166 HD
HETATM   56  C42 UNL     1      -5.890   4.200  12.956  1.00  0.00     0.055 A 
BRANCH  54  57
HETATM   57  N2  UNL     1      -8.156   3.567  13.552  1.00  0.00    -0.385 N 
HETATM   58  H59 UNL     1      -8.057   4.028  14.458  1.00  0.00     0.157 HD
HETATM   59  H60 UNL     1      -8.900   2.880  13.557  1.00  0.00     0.157 HD
ENDBRANCH  54  57
ENDBRANCH  49  50
ENDBRANCH  48  49
ENDBRANCH  43  48
ENDBRANCH  39  43
ENDBRANCH  38  39
ENDBRANCH   6  36
TORSDOF 13
ENDMDL
