MODEL 1
REMARK minimizedAffinity -8.5856142
REMARK CNNscore 0.517788529
REMARK CNNaffinity 7.23515654
REMARK  11 active torsions:
REMARK  status: ('A' for Active; 'I' for Inactive)
REMARK    1  A    between atoms: C2_2  and  O1_3 
REMARK    2  A    between atoms: C2_2  and  C3_4 
REMARK    3  A    between atoms: C3_4  and  N1_5 
REMARK    4  A    between atoms: N1_5  and  C4_6 
REMARK    5  A    between atoms: C4_6  and  C5_7 
REMARK    6  A    between atoms: C6_8  and  C7_9 
REMARK    7  A    between atoms: C7_9  and  O2_10 
REMARK    8  A    between atoms: C7_9  and  C8_11 
REMARK    9  A    between atoms: C8_11  and  O3_13 
REMARK   10  A    between atoms: C8_11  and  C10_14 
REMARK   11  A    between atoms: C17_22  and  C18_23 
ROOT
HETATM    1  C10 UNL     1      -8.876  -9.826   1.572  1.00  0.00     0.034 C 
HETATM    2  C11 UNL     1      -9.774 -10.891   2.248  1.00  0.00     0.012 C 
HETATM    3  C12 UNL     1      -8.864 -11.715   3.181  1.00  0.00     0.044 C 
HETATM    4  C13 UNL     1      -7.598 -10.841   3.365  1.00  0.00     0.093 C 
HETATM    5  O4  UNL     1      -7.899  -9.716   4.239  1.00  0.00    -0.363 OA
HETATM    6  C14 UNL     1      -8.430 -10.020   5.532  1.00  0.00     0.263 C 
HETATM    7  C15 UNL     1      -7.545  -9.559   6.608  1.00  0.00    -0.080 C 
HETATM    8  C16 UNL     1      -6.877  -9.268   7.568  1.00  0.00    -0.093 C 
HETATM    9  C17 UNL     1      -6.045  -8.956   8.759  1.00  0.00     0.121 C 
HETATM   10  C24 UNL     1      -4.835  -9.915   8.901  1.00  0.00     0.190 C 
HETATM   11  O5  UNL     1      -3.740  -9.617   8.024  1.00  0.00    -0.384 OA
HETATM   12  C25 UNL     1      -3.873 -10.161   6.711  1.00  0.00     0.122 C 
HETATM   13  C26 UNL     1      -2.938  -9.394   5.780  1.00  0.00     0.033 C 
HETATM   14  C27 UNL     1      -2.619 -10.136   4.477  1.00  0.00     0.013 C 
HETATM   15  C28 UNL     1      -3.676 -11.196   4.066  1.00  0.00    -0.026 C 
HETATM   16  C29 UNL     1      -3.127 -11.965   2.832  1.00  0.00     0.016 C 
HETATM   17  C30 UNL     1      -3.774 -12.232   5.235  1.00  0.00     0.071 C 
HETATM   18  C31 UNL     1      -3.574 -11.652   6.653  1.00  0.00     0.045 C 
HETATM   19  C32 UNL     1      -5.024 -13.093   5.189  1.00  0.00     0.154 C 
HETATM   20  O6  UNL     1      -5.091 -14.170   5.781  1.00  0.00    -0.293 OA
HETATM   21  C33 UNL     1      -6.231 -12.603   4.493  1.00  0.00     0.057 C 
HETATM   22  C34 UNL     1      -6.278 -11.416   3.865  1.00  0.00    -0.036 C 
HETATM   23  C35 UNL     1      -5.058 -10.495   3.722  1.00  0.00     0.026 C 
HETATM   24  C36 UNL     1      -5.013  -9.722   2.372  1.00  0.00     0.011 C 
HETATM   25  C37 UNL     1      -6.370  -9.197   1.887  1.00  0.00     0.014 C 
HETATM   26  C38 UNL     1      -7.424 -10.319   1.887  1.00  0.00    -0.002 C 
HETATM   27  C39 UNL     1      -6.969 -11.450   0.924  1.00  0.00     0.019 C 
ENDROOT
BRANCH   1  28
HETATM   28  C8  UNL     1      -9.340  -9.405   0.138  1.00  0.00     0.087 C 
HETATM   29  C9  UNL     1     -10.546  -8.452   0.109  1.00  0.00     0.049 C 
BRANCH  28  30
HETATM   30  C7  UNL     1      -8.167  -8.737  -0.688  1.00  0.00     0.181 C 
BRANCH  30  31
HETATM   31  C6  UNL     1      -8.118  -9.128  -2.184  1.00  0.00     0.159 C 
HETATM   32  C5  UNL     1      -8.157  -8.044  -3.276  1.00  0.00     0.051 C 
HETATM   33  C41 UNL     1      -8.606  -8.861  -4.492  1.00  0.00     0.014 C 
HETATM   34  C40 UNL     1      -9.504  -9.934  -3.886  1.00  0.00     0.173 C 
HETATM   35  C42 UNL     1      -7.422  -9.491  -5.233  1.00  0.00     0.012 C 
HETATM   36  O7  UNL     1      -9.176 -10.057  -2.496  1.00  0.00    -0.382 OA
BRANCH  32  37
HETATM   37  C4  UNL     1      -9.026  -6.789  -3.050  1.00  0.00     0.277 C 
BRANCH  37  38
HETATM   38  N1  UNL     1      -8.766  -5.668  -3.955  1.00  0.00     0.086 N 
HETATM   39  H8  UNL     1      -8.839  -4.789  -3.442  1.00  0.00     0.315 HD
BRANCH  38  40
HETATM   40  C3  UNL     1      -9.761  -5.650  -5.045  1.00  0.00     0.300 C 
BRANCH  40  41
HETATM   41  C2  UNL     1     -10.231  -4.199  -5.270  1.00  0.00     0.142 C 
HETATM   42  C1  UNL     1      -9.239  -3.407  -6.105  1.00  0.00     0.041 C 
BRANCH  41  43
HETATM   43  O1  UNL     1     -10.391  -3.554  -4.005  1.00  0.00    -0.394 OA
HETATM   44  H5  UNL     1     -10.603  -4.282  -3.386  1.00  0.00     0.210 HD
ENDBRANCH  41  43
ENDBRANCH  40  41
ENDBRANCH  38  40
ENDBRANCH  37  38
ENDBRANCH  32  37
ENDBRANCH  30  31
BRANCH  30  45
HETATM   45  O2  UNL     1      -8.316  -7.317  -0.570  1.00  0.00    -0.390 OA
HETATM   46  H14 UNL     1      -9.172  -7.106  -0.995  1.00  0.00     0.210 HD
ENDBRANCH  30  45
ENDBRANCH  28  30
BRANCH  28  47
HETATM   47  O3  UNL     1      -9.789 -10.580  -0.557  1.00  0.00    -0.387 OA
HETATM   48  H18 UNL     1      -8.993 -11.066  -0.862  1.00  0.00     0.210 HD
ENDBRANCH  28  47
ENDBRANCH   1  28
BRANCH   9  49
HETATM   49  C18 UNL     1      -6.903  -9.014  10.020  1.00  0.00    -0.040 A 
HETATM   50  C19 UNL     1      -6.325  -8.920  11.302  1.00  0.00     0.008 A 
HETATM   51  C20 UNL     1      -7.120  -8.959  12.448  1.00  0.00     0.001 A 
HETATM   52  C21 UNL     1      -8.503  -9.089  12.334  1.00  0.00     0.000 A 
HETATM   53  C22 UNL     1      -9.085  -9.197  11.072  1.00  0.00     0.001 A 
HETATM   54  C23 UNL     1      -8.297  -9.156   9.920  1.00  0.00     0.008 A 
ENDBRANCH   9  49
TORSDOF 11
ENDMDL
