MODEL 1
REMARK minimizedAffinity -7.69960308
REMARK  7 active torsions:
REMARK  status: ('A' for Active; 'I' for Inactive)
REMARK    1  A    between atoms: N1_2  and  C2_3 
REMARK    2  A    between atoms: C2_3  and  C3_4 
REMARK    3  A    between atoms: C5_6  and  O1_7 
REMARK    4  A    between atoms: C29_32  and  N2_33 
REMARK    5  A    between atoms: C29_32  and  C30_34 
REMARK    6  A    between atoms: C30_34  and  C31_35 
REMARK    7  A    between atoms: C31_35  and  O3_36 
ROOT
HETATM    1  C3  UNL     1       3.096   7.121  10.116  1.00  0.00    -0.021 A 
HETATM    2  C4  UNL     1       3.954   8.128   9.623  1.00  0.00     0.045 A 
HETATM    3  C5  UNL     1       4.665   8.938  10.492  1.00  0.00     0.066 A 
HETATM    4  C6  UNL     1       4.568   8.755  11.859  1.00  0.00     0.045 A 
HETATM    5  C7  UNL     1       3.735   7.754  12.398  1.00  0.00    -0.037 A 
HETATM    6  C8  UNL     1       2.941   6.950  11.523  1.00  0.00    -0.042 A 
HETATM    7  C9  UNL     1       1.959   5.915  12.076  1.00  0.00     0.044 C 
HETATM    8  C10 UNL     1       0.444   6.194  11.822  1.00  0.00    -0.006 C 
HETATM    9  C11 UNL     1      -0.416   5.013  12.298  1.00  0.00     0.005 C 
HETATM   10  C12 UNL     1      -0.431   4.822  13.815  1.00  0.00     0.001 C 
HETATM   11  C13 UNL     1      -0.327   6.124  14.615  1.00  0.00     0.008 C 
HETATM   12  C14 UNL     1      -0.789   7.338  13.805  1.00  0.00     0.026 C 
HETATM   13  C15 UNL     1      -0.039   7.513  12.466  1.00  0.00    -0.003 C 
HETATM   14  C16 UNL     1      -0.949   8.350  11.533  1.00  0.00     0.006 C 
HETATM   15  C17 UNL     1      -1.644   9.518  12.269  1.00  0.00     0.008 C 
HETATM   16  C18 UNL     1      -0.890   9.889  13.551  1.00  0.00     0.022 C 
HETATM   17  C19 UNL     1      -1.413  11.149  14.251  1.00  0.00     0.018 C 
HETATM   18  C20 UNL     1      -1.345  10.914  15.794  1.00  0.00     0.060 C 
HETATM   19  C21 UNL     1      -2.402   9.800  16.096  1.00  0.00     0.061 C 
HETATM   20  C22 UNL     1      -3.835  10.238  15.723  1.00  0.00     0.046 C 
HETATM   21  C23 UNL     1      -2.468   9.343  17.560  1.00  0.00     0.046 C 
HETATM   22  O2  UNL     1      -2.108   8.640  15.298  1.00  0.00    -0.367 OA
HETATM   23  C24 UNL     1      -0.844   8.700  14.569  1.00  0.00     0.086 C 
HETATM   24  C25 UNL     1       0.286   8.978  15.622  1.00  0.00     0.139 C 
HETATM   25  C26 UNL     1       1.639   8.656  15.106  1.00  0.00    -0.096 C 
HETATM   26  C27 UNL     1       2.647   8.243  14.598  1.00  0.00    -0.101 C 
HETATM   27  C28 UNL     1       3.776   7.601  13.912  1.00  0.00     0.133 C 
HETATM   28  C29 UNL     1       0.131  10.462  16.160  1.00  0.00     0.180 C 
ENDROOT
BRANCH  28  29
HETATM   29  N2  UNL     1       1.068  11.411  15.502  1.00  0.00     0.090 N 
HETATM   30  H38 UNL     1       2.033  11.109  15.643  1.00  0.00     0.313 HD
HETATM   31  H39 UNL     1       0.989  12.350  15.881  1.00  0.00     0.313 HD
ENDBRANCH  28  29
BRANCH  28  32
HETATM   32  C30 UNL     1       0.505  10.509  17.672  1.00  0.00     0.069 C 
BRANCH  32  33
HETATM   33  C31 UNL     1       1.977  10.758  18.000  1.00  0.00     0.166 C 
BRANCH  33  34
HETATM   34  O3  UNL     1       2.418   9.739  18.891  1.00  0.00    -0.401 OA
HETATM   35  H44 UNL     1       3.357   9.909  19.081  1.00  0.00     0.209 HD
ENDBRANCH  33  34
ENDBRANCH  32  33
ENDBRANCH  28  32
BRANCH   3  36
HETATM   36  O1  UNL     1       5.495   9.920  10.038  1.00  0.00    -0.361 OA
HETATM   37  H8  UNL     1       5.420   9.965   9.071  1.00  0.00     0.217 HD
ENDBRANCH   3  36
BRANCH   1  38
HETATM   38  C2  UNL     1       2.406   6.259   9.070  1.00  0.00     0.308 C 
BRANCH  38  39
HETATM   39  N1  UNL     1       3.356   5.380   8.389  1.00  0.00     0.083 N 
HETATM   40  C1  UNL     1       3.732   4.256   9.231  1.00  0.00     0.307 C 
HETATM   41  H4  UNL     1       4.184   5.908   8.125  1.00  0.00     0.315 HD
ENDBRANCH  38  39
ENDBRANCH   1  38
TORSDOF 7
ENDMDL
