MODEL 1
REMARK minimizedAffinity -9.36903763
REMARK CNNscore 0.777411819
REMARK CNNaffinity 6.81872225
REMARK  12 active torsions:
REMARK  status: ('A' for Active; 'I' for Inactive)
REMARK    1  A    between atoms: N1_6  and  O1_8 
REMARK    2  A    between atoms: O1_8  and  C6_9 
REMARK    3  A    between atoms: C6_9  and  C7_10 
REMARK       I    between atoms: C7_10  and  N2_12 
REMARK    4  A    between atoms: N2_12  and  C8_13 
REMARK    5  A    between atoms: C8_13  and  C9_14 
REMARK    6  A    between atoms: C12_17  and  C13_18 
REMARK    7  A    between atoms: C13_18  and  O4_20 
REMARK    8  A    between atoms: C22_29  and  O5_30 
REMARK    9  A    between atoms: C29_37  and  O6_38 
REMARK   10  A    between atoms: C29_37  and  C30_39 
REMARK   11  A    between atoms: C30_39  and  C31_41 
REMARK   12  A    between atoms: C31_41  and  O8_42 
ROOT
HETATM    1  C1  UNL     1      -2.239   6.355  14.584  1.00  0.00     0.020 C 
HETATM    2  C2  UNL     1      -1.575   7.749  14.564  1.00  0.00    -0.014 C 
HETATM    3  C3  UNL     1      -1.137   8.119  16.012  1.00  0.00     0.020 C 
HETATM    4  C4  UNL     1      -2.288   8.519  16.925  1.00  0.00     0.060 C 
HETATM    5  C5  UNL     1      -3.059   9.666  16.308  1.00  0.00     0.032 C 
HETATM    6  N1  UNL     1      -3.594  10.650  16.971  1.00  0.00    -0.271 N 
ATOM      7  H1  UNL     1      -4.144  11.394  16.541  1.00  0.00     0.194 HD
HETATM    8  C16 UNL     1      -3.262   9.635  14.838  1.00  0.00     0.030 C 
HETATM    9  C17 UNL     1      -2.627   8.747  14.055  1.00  0.00    -0.069 C 
HETATM   10  C18 UNL     1      -2.942   8.687  12.580  1.00  0.00     0.035 C 
HETATM   11  C19 UNL     1      -1.681   8.822  11.739  1.00  0.00     0.010 C 
HETATM   12  C20 UNL     1      -0.631   7.763  12.112  1.00  0.00    -0.002 C 
HETATM   13  C21 UNL     1      -0.296   7.833  13.636  1.00  0.00     0.031 C 
HETATM   14  C22 UNL     1       0.872   6.876  14.021  1.00  0.00     0.124 C 
HETATM   15  C23 UNL     1       2.101   7.015  13.096  1.00  0.00     0.045 C 
HETATM   16  C24 UNL     1       1.760   6.922  11.589  1.00  0.00     0.001 C 
HETATM   17  C25 UNL     1       1.312   5.486  11.208  1.00  0.00     0.019 C 
HETATM   18  C26 UNL     1       0.668   7.987  11.318  1.00  0.00     0.002 C 
HETATM   19  C27 UNL     1       0.591   8.046   9.799  1.00  0.00     0.009 C 
HETATM   20  C28 UNL     1       2.046   7.846   9.340  1.00  0.00     0.047 C 
HETATM   21  C29 UNL     1       2.864   7.403  10.590  1.00  0.00     0.128 C 
ENDROOT
BRANCH   6  22
HETATM   22  O1  UNL     1      -3.326  10.570  18.345  1.00  0.00    -0.271 OA
BRANCH  22  23
HETATM   23  C6  UNL     1      -3.097  11.881  18.861  1.00  0.00     0.303 C 
BRANCH  23  24
HETATM   24  C7  UNL     1      -4.353  12.740  18.757  1.00  0.00     0.244 C 
HETATM   25  O2  UNL     1      -4.866  13.021  17.677  1.00  0.00    -0.271 OA
HETATM   26  N2  UNL     1      -4.868  13.133  19.975  1.00  0.00    -0.355 N 
HETATM   27  H10 UNL     1      -4.279  12.957  20.783  1.00  0.00     0.162 HD
BRANCH  26  28
HETATM   28  C8  UNL     1      -5.938  14.095  20.081  1.00  0.00     0.161 C 
BRANCH  28  29
HETATM   29  C9  UNL     1      -7.002  13.607  21.033  1.00  0.00    -0.040 A 
HETATM   30  C10 UNL     1      -6.700  13.428  22.393  1.00  0.00     0.010 A 
HETATM   31  C11 UNL     1      -7.666  12.943  23.280  1.00  0.00     0.019 A 
HETATM   32  C12 UNL     1      -8.948  12.627  22.814  1.00  0.00     0.037 A 
HETATM   33  C14 UNL     1      -9.255  12.800  21.458  1.00  0.00     0.019 A 
HETATM   34  C15 UNL     1      -8.287  13.282  20.572  1.00  0.00     0.010 A 
BRANCH  32  35
HETATM   35  C13 UNL     1     -10.006  12.104  23.713  1.00  0.00     0.176 C 
HETATM   36  O3  UNL     1     -11.143  11.818  23.385  1.00  0.00    -0.646 OA
BRANCH  35  37
HETATM   37  O4  UNL     1      -9.589  11.963  24.982  1.00  0.00    -0.773 OA
HETATM   38  H15 UNL     1     -10.378  11.619  25.450  1.00  0.00     0.167 HD
ENDBRANCH  35  37
ENDBRANCH  32  35
ENDBRANCH  28  29
ENDBRANCH  26  28
ENDBRANCH  23  24
ENDBRANCH  22  23
ENDBRANCH   6  22
BRANCH  14  39
HETATM   39  O5  UNL     1       0.450   5.520  14.028  1.00  0.00    -0.395 OA
HETATM   40  H26 UNL     1       1.159   4.989  14.425  1.00  0.00     0.210 HD
ENDBRANCH  14  39
BRANCH  21  41
HETATM   41  O6  UNL     1       3.513   8.585  11.085  1.00  0.00    -0.381 OA
HETATM   42  H37 UNL     1       4.104   8.308  11.817  1.00  0.00     0.211 HD
ENDBRANCH  21  41
BRANCH  21  43
HETATM   43  C30 UNL     1       3.942   6.347  10.218  1.00  0.00     0.184 C 
HETATM   44  O7  UNL     1       3.835   5.577   9.262  1.00  0.00    -0.292 OA
BRANCH  43  45
HETATM   45  C31 UNL     1       5.176   6.269  11.110  1.00  0.00     0.245 C 
BRANCH  45  46
HETATM   46  O8  UNL     1       6.070   5.237  10.726  1.00  0.00    -0.393 OA
HETATM   47  H40 UNL     1       5.680   4.402  11.053  1.00  0.00     0.209 HD
ENDBRANCH  45  46
ENDBRANCH  43  45
ENDBRANCH  21  43
TORSDOF 12
ENDMDL
