MODEL 1
REMARK minimizedAffinity -7.4665947
REMARK CNNscore 0.790899932
REMARK CNNaffinity 7.6850791
REMARK  6 active torsions:
REMARK  status: ('A' for Active; 'I' for Inactive)
REMARK    1  A    between atoms: C2_2  and  C30_32 
REMARK    2  A    between atoms: C3_3  and  C4_4 
REMARK    3  A    between atoms: C4_4  and  C5_5 
REMARK    4  A    between atoms: C5_5  and  C6_6 
REMARK    5  A    between atoms: C6_6  and  C8_8 
REMARK    6  A    between atoms: C30_32  and  O4_34 
ROOT
HETATM    1  C8  UNL     1       4.027  54.526  -8.713  1.00  0.00    -0.002 C 
HETATM    2  C9  UNL     1       4.647  53.196  -9.145  1.00  0.00     0.007 C 
HETATM    3  C10 UNL     1       3.435  52.311  -9.371  1.00  0.00     0.015 C 
HETATM    4  C11 UNL     1       2.467  53.177 -10.211  1.00  0.00    -0.005 C 
HETATM    5  C12 UNL     1       2.886  53.063 -11.705  1.00  0.00     0.021 C 
HETATM    6  C13 UNL     1       1.006  52.685 -10.106  1.00  0.00    -0.000 C 
HETATM    7  C14 UNL     1      -0.045  53.480  -9.791  1.00  0.00    -0.060 C 
HETATM    8  C15 UNL     1       0.207  54.915  -9.376  1.00  0.00     0.036 C 
HETATM    9  C16 UNL     1       1.560  55.081  -8.707  1.00  0.00     0.015 C 
HETATM   10  C17 UNL     1       2.731  54.654  -9.622  1.00  0.00    -0.028 C 
HETATM   11  C18 UNL     1       2.873  55.709 -10.744  1.00  0.00     0.016 C 
HETATM   12  C19 UNL     1      -1.526  53.036  -9.804  1.00  0.00    -0.014 C 
HETATM   13  C20 UNL     1      -1.979  52.869  -8.327  1.00  0.00     0.020 C 
HETATM   14  C21 UNL     1      -2.413  54.134 -10.466  1.00  0.00     0.021 C 
HETATM   15  C22 UNL     1      -3.671  53.576 -11.108  1.00  0.00     0.080 C 
HETATM   16  C23 UNL     1      -3.283  52.679 -12.260  1.00  0.00     0.135 C 
HETATM   17  O1  UNL     1      -3.945  52.686 -13.298  1.00  0.00    -0.297 OA
HETATM   18  C24 UNL     1      -2.057  51.764 -12.071  1.00  0.00     0.018 C 
HETATM   19  C25 UNL     1      -2.444  50.380 -12.638  1.00  0.00     0.023 C 
HETATM   20  C26 UNL     1      -0.918  52.330 -12.931  1.00  0.00     0.023 C 
HETATM   21  C27 UNL     1      -1.744  51.662 -10.533  1.00  0.00     0.020 C 
HETATM   22  C28 UNL     1      -0.639  50.681 -10.149  1.00  0.00     0.090 C 
HETATM   23  C29 UNL     1       0.742  51.227 -10.382  1.00  0.00     0.157 C 
HETATM   24  O2  UNL     1       1.638  50.462 -10.733  1.00  0.00    -0.293 OA
ENDROOT
BRANCH   1  25
HETATM   25  C6  UNL     1       5.040  55.705  -8.661  1.00  0.00    -0.014 C 
HETATM   26  C7  UNL     1       6.498  55.213  -8.712  1.00  0.00     0.010 C 
BRANCH  25  27
HETATM   27  C5  UNL     1       4.857  56.644  -7.441  1.00  0.00     0.008 C 
BRANCH  27  28
HETATM   28  C4  UNL     1       3.891  57.816  -7.649  1.00  0.00     0.028 C 
BRANCH  28  29
HETATM   29  C3  UNL     1       2.549  57.523  -7.032  1.00  0.00    -0.013 C 
HETATM   30  C2  UNL     1       2.172  57.745  -5.755  1.00  0.00     0.008 C 
HETATM   31  C1  UNL     1       3.017  58.385  -4.694  1.00  0.00     0.055 C 
BRANCH  30  32
HETATM   32  C30 UNL     1       0.812  57.364  -5.287  1.00  0.00     0.171 C 
HETATM   33  O3  UNL     1       0.455  57.327  -4.121  1.00  0.00    -0.646 OA
BRANCH  32  34
HETATM   34  O4  UNL     1      -0.041  57.045  -6.274  1.00  0.00    -0.773 OA
HETATM   35  H44 UNL     1      -0.867  56.825  -5.797  1.00  0.00     0.167 HD
ENDBRANCH  32  34
ENDBRANCH  30  32
ENDBRANCH  28  29
ENDBRANCH  27  28
ENDBRANCH  25  27
ENDBRANCH   1  25
TORSDOF 6
ENDMDL
