MODEL 1
REMARK minimizedAffinity -7.62232685
REMARK CNNscore 0.729257345
REMARK CNNaffinity 7.06823587
REMARK  4 active torsions:
REMARK  status: ('A' for Active; 'I' for Inactive)
REMARK    1  A    between atoms: C4_4  and  C5_5 
REMARK    2  A    between atoms: C5_5  and  C6_7 
REMARK    3  A    between atoms: C6_7  and  C7_8 
REMARK    4  A    between atoms: C7_8  and  C9_10 
ROOT
HETATM    1  C9  UNL     1       2.496  53.394 -10.992  1.00  0.00    -0.002 C 
HETATM    2  C10 UNL     1       1.170  54.206 -11.109  1.00  0.00     0.006 C 
HETATM    3  C11 UNL     1       1.259  55.382 -10.114  1.00  0.00     0.011 C 
HETATM    4  C12 UNL     1       2.738  55.432  -9.696  1.00  0.00    -0.032 C 
HETATM    5  C13 UNL     1       3.471  56.195 -10.859  1.00  0.00     0.016 C 
HETATM    6  C14 UNL     1       3.116  56.184  -8.376  1.00  0.00     0.004 C 
HETATM    7  C15 UNL     1       1.958  56.510  -7.427  1.00  0.00     0.007 C 
HETATM    8  C16 UNL     1       2.391  57.283  -6.164  1.00  0.00     0.007 C 
HETATM    9  C17 UNL     1       3.910  57.560  -6.042  1.00  0.00     0.010 C 
HETATM   10  C18 UNL     1       4.341  58.150  -4.661  1.00  0.00     0.018 C 
HETATM   11  C19 UNL     1       4.125  57.177  -3.490  1.00  0.00     0.023 C 
HETATM   12  C20 UNL     1       3.582  59.459  -4.369  1.00  0.00     0.023 C 
HETATM   13  C21 UNL     1       5.841  58.484  -4.709  1.00  0.00     0.135 C 
HETATM   14  O2  UNL     1       6.383  59.175  -3.843  1.00  0.00    -0.297 OA
HETATM   15  C22 UNL     1       6.645  57.959  -5.875  1.00  0.00     0.080 C 
HETATM   16  C23 UNL     1       6.267  56.516  -6.157  1.00  0.00     0.018 C 
HETATM   17  C24 UNL     1       4.779  56.345  -6.427  1.00  0.00    -0.026 A 
HETATM   18  C25 UNL     1       4.208  54.963  -6.223  1.00  0.00     0.021 A 
HETATM   19  C26 UNL     1       4.300  55.518  -7.638  1.00  0.00    -0.027 A 
HETATM   20  C27 UNL     1       5.274  54.791  -8.550  1.00  0.00     0.011 C 
HETATM   21  C28 UNL     1       4.611  53.732  -9.457  1.00  0.00     0.011 C 
HETATM   22  C29 UNL     1       3.086  53.899  -9.633  1.00  0.00    -0.032 C 
HETATM   23  C30 UNL     1       2.363  53.139  -8.481  1.00  0.00     0.016 C 
ENDROOT
BRANCH   1  24
HETATM   24  C7  UNL     1       2.280  51.872 -11.227  1.00  0.00    -0.007 C 
HETATM   25  C8  UNL     1       3.593  51.083 -11.236  1.00  0.00     0.011 C 
BRANCH  24  26
HETATM   26  C6  UNL     1       1.477  51.567 -12.514  1.00  0.00     0.087 C 
BRANCH  26  27
HETATM   27  C5  UNL     1       2.224  50.720 -13.531  1.00  0.00     0.149 C 
HETATM   28  O1  UNL     1       1.994  49.521 -13.669  1.00  0.00    -0.293 OA
BRANCH  27  29
HETATM   29  C4  UNL     1       3.266  51.410 -14.347  1.00  0.00     0.052 C 
HETATM   30  C2  UNL     1       3.033  52.068 -15.498  1.00  0.00    -0.084 C 
HETATM   31  C1  UNL     1       1.679  52.265 -16.125  1.00  0.00     0.043 C 
HETATM   32  C3  UNL     1       4.169  52.691 -16.264  1.00  0.00     0.043 C 
ENDBRANCH  27  29
ENDBRANCH  26  27
ENDBRANCH  24  26
ENDBRANCH   1  24
TORSDOF 4
ENDMDL
