MODEL 1
REMARK minimizedAffinity -9.95146465
REMARK  6 active torsions:
REMARK  status: ('A' for Active; 'I' for Inactive)
REMARK    1  A    between atoms: C9_10  and  C10_11 
REMARK    2  A    between atoms: C11_13  and  O3_14 
REMARK    3  A    between atoms: C12_15  and  C13_16 
REMARK    4  A    between atoms: C14_18  and  O5_19 
REMARK    5  A    between atoms: C16_21  and  C17_22 
REMARK    6  A    between atoms: C17_22  and  C18_23 
ROOT
HETATM    1  C1  UNL     1      -6.974  47.453 -24.690  1.00  0.00     0.043 C 
HETATM    2  C2  UNL     1      -5.847  48.460 -24.777  1.00  0.00    -0.087 C 
HETATM    3  C3  UNL     1      -4.746  48.157 -25.498  1.00  0.00    -0.024 C 
HETATM    4  C4  UNL     1      -3.463  48.888 -25.819  1.00  0.00     0.030 C 
HETATM    5  C5  UNL     1      -3.451  50.414 -25.782  1.00  0.00     0.042 C 
HETATM    6  C6  UNL     1      -2.747  51.135 -24.583  1.00  0.00     0.069 C 
HETATM    7  C7  UNL     1      -3.433  52.529 -24.484  1.00  0.00     0.047 C 
HETATM    8  O1  UNL     1      -1.400  51.411 -25.117  1.00  0.00    -0.338 OA
HETATM    9  C8  UNL     1      -0.569  52.006 -24.201  1.00  0.00     0.095 A 
HETATM   10  C9  UNL     1       0.137  53.162 -24.539  1.00  0.00     0.070 A 
HETATM   11  C11 UNL     1       0.906  53.807 -23.563  1.00  0.00     0.097 A 
HETATM   12  C12 UNL     1       0.953  53.285 -22.265  1.00  0.00     0.069 A 
HETATM   13  C14 UNL     1       0.262  52.095 -21.952  1.00  0.00     0.091 A 
HETATM   14  C15 UNL     1      -0.463  51.414 -22.935  1.00  0.00     0.015 A 
HETATM   15  C16 UNL     1      -1.174  50.078 -22.837  1.00  0.00     0.032 C 
HETATM   16  C21 UNL     1      -2.683  50.305 -23.192  1.00  0.00     0.034 C 
HETATM   17  C22 UNL     1      -3.475  50.985 -22.078  1.00  0.00     0.006 A 
HETATM   18  C23 UNL     1      -4.966  50.688 -21.907  1.00  0.00    -0.001 A 
HETATM   19  C24 UNL     1      -5.703  49.513 -22.502  1.00  0.00     0.010 C 
HETATM   20  C25 UNL     1      -6.103  49.713 -23.962  1.00  0.00     0.034 C 
HETATM   21  C26 UNL     1      -4.016  50.437 -20.745  1.00  0.00    -0.039 A 
HETATM   22  C27 UNL     1      -4.080  51.419 -19.593  1.00  0.00     0.015 C 
HETATM   23  C28 UNL     1      -3.806  49.022 -20.265  1.00  0.00     0.015 C 
ENDROOT
BRANCH  15  24
HETATM   24  C17 UNL     1      -0.901  49.168 -21.627  1.00  0.00     0.014 C 
BRANCH  24  25
HETATM   25  C18 UNL     1      -1.445  49.680 -20.270  1.00  0.00    -0.022 C 
HETATM   26  C19 UNL     1      -0.453  50.600 -19.553  1.00  0.00     0.009 C 
HETATM   27  C20 UNL     1      -1.772  48.483 -19.371  1.00  0.00     0.009 C 
ENDBRANCH  24  25
ENDBRANCH  15  24
BRANCH  13  28
HETATM   28  O5  UNL     1       0.267  51.596 -20.677  1.00  0.00    -0.359 OA
HETATM   29  H15 UNL     1       0.828  52.171 -20.107  1.00  0.00     0.217 HD
ENDBRANCH  13  28
BRANCH  10  30
HETATM   30  C10 UNL     1       0.037  53.701 -25.908  1.00  0.00     0.275 C 
HETATM   31  O2  UNL     1       0.137  54.910 -26.104  1.00  0.00    -0.301 OA
ENDBRANCH  10  30
BRANCH  12  32
HETATM   32  C13 UNL     1       1.736  53.997 -21.232  1.00  0.00     0.275 C 
HETATM   33  O4  UNL     1       1.216  54.319 -20.166  1.00  0.00    -0.301 OA
ENDBRANCH  12  32
BRANCH  11  34
HETATM   34  O3  UNL     1       1.604  54.957 -23.838  1.00  0.00    -0.359 OA
HETATM   35  H13 UNL     1       1.461  55.196 -24.785  1.00  0.00     0.217 HD
ENDBRANCH  11  34
TORSDOF 6
ENDMDL
