MODEL 1
REMARK minimizedAffinity -6.2379365
REMARK CNNscore 0.401751578
REMARK CNNaffinity 6.3391757
REMARK  0 active torsions:
REMARK  status: ('A' for Active; 'I' for Inactive)
ROOT
HETATM    1  C1  UNL     1      -1.046  14.474   4.250  1.00  0.00     0.023 C 
HETATM    2  C2  UNL     1      -0.885  14.046   2.782  1.00  0.00     0.017 C 
HETATM    3  C3  UNL     1      -1.038  12.503   2.735  1.00  0.00     0.023 C 
HETATM    4  C4  UNL     1      -2.055  14.646   1.982  1.00  0.00     0.135 C 
HETATM    5  O1  UNL     1      -3.110  14.033   1.803  1.00  0.00    -0.297 OA
HETATM    6  C5  UNL     1      -1.939  16.078   1.520  1.00  0.00     0.080 C 
HETATM    7  C6  UNL     1      -0.591  16.339   0.861  1.00  0.00     0.017 C 
HETATM    8  C7  UNL     1       0.647  15.965   1.732  1.00  0.00    -0.035 C 
HETATM    9  C8  UNL     1       0.639  16.917   2.961  1.00  0.00     0.016 C 
HETATM   10  C9  UNL     1       0.481  14.453   2.117  1.00  0.00     0.009 C 
HETATM   11  C10 UNL     1       1.717  13.945   2.882  1.00  0.00     0.007 C 
HETATM   12  C11 UNL     1       2.959  14.025   2.002  1.00  0.00     0.011 C 
HETATM   13  C12 UNL     1       3.328  15.447   1.504  1.00  0.00    -0.032 C 
HETATM   14  C13 UNL     1       3.810  16.258   2.741  1.00  0.00     0.016 C 
HETATM   15  C14 UNL     1       2.031  16.194   0.923  1.00  0.00     0.003 C 
HETATM   16  C15 UNL     1       1.903  15.957  -0.593  1.00  0.00     0.006 C 
HETATM   17  C16 UNL     1       3.111  16.445  -1.397  1.00  0.00     0.006 C 
HETATM   18  C17 UNL     1       4.407  16.581  -0.591  1.00  0.00    -0.000 C 
HETATM   19  C18 UNL     1       5.650  16.768  -1.503  1.00  0.00     0.009 C 
HETATM   20  C19 UNL     1       5.726  17.955  -2.489  1.00  0.00     0.067 A 
HETATM   21  C20 UNL     1       7.260  18.183  -2.668  1.00  0.00     0.140 A 
HETATM   22  C21 UNL     1       7.970  17.190  -1.741  1.00  0.00     0.042 C 
HETATM   23  C22 UNL     1       6.931  16.931  -0.648  1.00  0.00    -0.037 C 
HETATM   24  C23 UNL     1       6.919  18.148   0.314  1.00  0.00     0.015 C 
HETATM   25  C24 UNL     1       7.159  15.635   0.136  1.00  0.00     0.010 C 
HETATM   26  C25 UNL     1       5.977  15.358   1.080  1.00  0.00     0.011 C 
HETATM   27  C26 UNL     1       4.555  15.363   0.400  1.00  0.00    -0.032 C 
HETATM   28  C27 UNL     1       4.520  14.026  -0.416  1.00  0.00     0.016 C 
HETATM   29  O2  UNL     1       7.639  17.922  -4.026  1.00  0.00    -0.313 OA
HETATM   30  C28 UNL     1       6.534  17.655  -4.775  1.00  0.00     0.297 A 
HETATM   31  O3  UNL     1       6.525  17.440  -5.975  1.00  0.00    -0.262 OA
HETATM   32  C29 UNL     1       5.347  17.719  -3.910  1.00  0.00     0.175 A 
HETATM   33  C30 UNL     1       4.017  18.176  -4.461  1.00  0.00     0.218 A 
HETATM   34  O4  UNL     1       4.290  16.797  -4.174  1.00  0.00    -0.364 OA
ENDROOT
TORSDOF 0
ENDMDL
