MODEL 1
REMARK minimizedAffinity -6.11352444
REMARK CNNscore 0.573794127
REMARK CNNaffinity 6.11875916
REMARK  5 active torsions:
REMARK  status: ('A' for Active; 'I' for Inactive)
REMARK    1  A    between atoms: C2_2  and  C3_3 
REMARK    2  A    between atoms: C6_6  and  C7_7 
REMARK    3  A    between atoms: C7_7  and  O1_9 
REMARK    4  A    between atoms: C23_29  and  O6_30 
REMARK    5  A    between atoms: C28_36  and  O8_37 
ROOT
HETATM    1  C3  UNL     1     -11.730  14.465   0.923  1.00  0.00     0.008 C 
HETATM    2  C4  UNL     1     -10.953  14.708  -0.375  1.00  0.00    -0.023 C 
HETATM    3  C5  UNL     1     -11.425  15.301  -1.489  1.00  0.00     0.004 C 
HETATM    4  C6  UNL     1     -10.717  15.380  -2.829  1.00  0.00     0.183 C 
HETATM    5  O2  UNL     1     -11.599  14.681  -3.728  1.00  0.00    -0.306 OA
HETATM    6  C9  UNL     1     -11.056  14.040  -4.794  1.00  0.00     0.289 C 
HETATM    7  O3  UNL     1      -9.941  14.224  -5.250  1.00  0.00    -0.260 OA
HETATM    8  C10 UNL     1     -11.968  12.900  -5.166  1.00  0.00     0.010 C 
HETATM    9  C11 UNL     1     -11.258  11.612  -5.444  1.00  0.00     0.054 C 
HETATM   10  C12 UNL     1     -13.292  13.085  -4.965  1.00  0.00     0.004 C 
HETATM   11  C13 UNL     1     -14.382  12.084  -4.636  1.00  0.00     0.147 C 
HETATM   12  C14 UNL     1     -14.287  10.622  -5.095  1.00  0.00     0.233 C 
HETATM   13  O4  UNL     1     -14.022  10.228  -6.218  1.00  0.00    -0.272 OA
HETATM   14  N1  UNL     1     -14.608   9.802  -4.023  1.00  0.00    -0.327 N 
HETATM   15  C15 UNL     1     -14.804  10.488  -2.865  1.00  0.00     0.056 C 
HETATM   16  C16 UNL     1     -15.129  10.012  -1.661  1.00  0.00     0.084 C 
HETATM   17  C17 UNL     1     -15.215  11.010  -0.544  1.00  0.00     0.185 C 
HETATM   18  O5  UNL     1     -15.060  10.633   0.608  1.00  0.00    -0.287 OA
HETATM   19  C18 UNL     1     -15.546  12.430  -0.915  1.00  0.00     0.040 C 
HETATM   20  C19 UNL     1     -15.393  12.812  -2.267  1.00  0.00    -0.001 C 
HETATM   21  C20 UNL     1     -15.888  14.050  -2.699  1.00  0.00     0.021 C 
HETATM   22  C21 UNL     1     -16.451  14.959  -1.790  1.00  0.00    -0.027 C 
HETATM   23  C22 UNL     1     -16.948  16.285  -2.296  1.00  0.00     0.051 C 
HETATM   24  C23 UNL     1     -16.407  14.647  -0.424  1.00  0.00     0.086 C 
HETATM   25  C24 UNL     1     -15.927  13.400   0.012  1.00  0.00     0.058 C 
HETATM   26  C25 UNL     1     -15.520  13.278   1.428  1.00  0.00     0.163 C 
HETATM   27  O7  UNL     1     -16.354  12.952   2.268  1.00  0.00    -0.292 OA
HETATM   28  C26 UNL     1     -14.052  13.589   1.778  1.00  0.00     0.084 C 
HETATM   29  C27 UNL     1     -13.242  14.269   0.658  1.00  0.00     0.016 C 
HETATM   30  C28 UNL     1     -14.484  11.931  -3.088  1.00  0.00     0.143 C 
HETATM   31  H20 UNL     1     -14.667   8.795  -4.128  1.00  0.00     0.168 HD
ENDROOT
BRANCH   4  32
HETATM   32  C7  UNL     1     -10.451  16.820  -3.335  1.00  0.00     0.147 C 
HETATM   33  C8  UNL     1     -11.616  17.782  -3.119  1.00  0.00     0.042 C 
BRANCH  32  34
HETATM   34  O1  UNL     1      -9.288  17.386  -2.723  1.00  0.00    -0.393 OA
HETATM   35  H14 UNL     1      -8.541  16.792  -2.909  1.00  0.00     0.210 HD
ENDBRANCH  32  34
ENDBRANCH   4  32
BRANCH   1  36
HETATM   36  C2  UNL     1     -11.477  15.577   1.956  1.00  0.00     0.004 C 
HETATM   37  C1  UNL     1     -10.834  15.077   3.244  1.00  0.00     0.006 C 
ENDBRANCH   1  36
BRANCH  30  38
HETATM   38  O8  UNL     1     -13.186  12.129  -2.479  1.00  0.00    -0.377 OA
HETATM   39  H31 UNL     1     -12.604  11.396  -2.743  1.00  0.00     0.211 HD
ENDBRANCH  30  38
BRANCH  24  40
HETATM   40  O6  UNL     1     -16.751  15.573   0.524  1.00  0.00    -0.359 OA
HETATM   41  H26 UNL     1     -17.230  16.316   0.127  1.00  0.00     0.217 HD
ENDBRANCH  24  40
TORSDOF 5
ENDMDL
