MODEL 1
REMARK minimizedAffinity -7.22227907
REMARK CNNscore 0.759198964
REMARK CNNaffinity 7.23549223
REMARK  5 active torsions:
REMARK  status: ('A' for Active; 'I' for Inactive)
REMARK    1  A    between atoms: C2_2  and  C3_3 
REMARK    2  A    between atoms: C2_2  and  C9_10 
REMARK    3  A    between atoms: C3_3  and  C4_4 
REMARK    4  A    between atoms: C5_5  and  C6_6 
REMARK    5  A    between atoms: C6_6  and  O1_9 
ROOT
HETATM    1  C9  UNL     1      -1.501  52.652 -10.073  1.00  0.00    -0.002 C 
HETATM    2  C10 UNL     1      -0.950  51.200  -9.947  1.00  0.00     0.006 C 
HETATM    3  C11 UNL     1       0.569  51.314  -9.709  1.00  0.00     0.011 C 
HETATM    4  C12 UNL     1       0.794  52.784  -9.295  1.00  0.00    -0.032 C 
HETATM    5  C13 UNL     1       0.430  52.863  -7.773  1.00  0.00     0.016 C 
HETATM    6  C14 UNL     1       2.240  53.330  -9.522  1.00  0.00     0.003 C 
HETATM    7  C15 UNL     1       3.282  52.645  -8.601  1.00  0.00     0.007 C 
HETATM    8  C16 UNL     1       4.681  53.216  -8.820  1.00  0.00     0.011 C 
HETATM    9  C17 UNL     1       4.794  54.741  -8.475  1.00  0.00    -0.030 C 
HETATM   10  C18 UNL     1       5.686  55.379  -9.571  1.00  0.00     0.016 C 
HETATM   11  C19 UNL     1       3.358  55.371  -8.374  1.00  0.00     0.003 C 
HETATM   12  C20 UNL     1       3.383  56.887  -8.077  1.00  0.00     0.013 C 
HETATM   13  C21 UNL     1       4.569  57.363  -7.250  1.00  0.00     0.079 C 
HETATM   14  C22 UNL     1       5.232  56.281  -6.434  1.00  0.00     0.131 C 
HETATM   15  O2  UNL     1       5.635  56.537  -5.292  1.00  0.00    -0.298 OA
HETATM   16  C23 UNL     1       5.461  54.905  -7.056  1.00  0.00     0.060 C 
HETATM   17  C24 UNL     1       6.961  54.598  -6.990  1.00  0.00     0.018 C 
HETATM   18  C25 UNL     1       2.323  54.925  -9.489  1.00  0.00    -0.035 C 
HETATM   19  C26 UNL     1       2.762  55.463 -10.882  1.00  0.00     0.016 C 
HETATM   20  C27 UNL     1       0.932  55.595  -9.203  1.00  0.00     0.011 C 
HETATM   21  C28 UNL     1      -0.313  55.003  -9.897  1.00  0.00     0.011 C 
HETATM   22  C29 UNL     1      -0.211  53.511 -10.274  1.00  0.00    -0.032 C 
HETATM   23  C30 UNL     1       0.212  53.418 -11.773  1.00  0.00     0.016 C 
ENDROOT
BRANCH   1  24
HETATM   24  C2  UNL     1      -2.768  52.765 -10.975  1.00  0.00    -0.010 C 
HETATM   25  C1  UNL     1      -3.946  53.594 -10.443  1.00  0.00     0.010 C 
BRANCH  24  26
HETATM   26  C3  UNL     1      -3.241  51.368 -11.448  1.00  0.00     0.031 C 
BRANCH  26  27
HETATM   27  C4  UNL     1      -4.499  50.897 -10.770  1.00  0.00    -0.027 C 
HETATM   28  C5  UNL     1      -5.057  49.693 -10.974  1.00  0.00     0.006 C 
BRANCH  28  29
HETATM   29  C6  UNL     1      -6.329  49.180 -10.333  1.00  0.00     0.068 C 
HETATM   30  C7  UNL     1      -6.021  48.396  -9.053  1.00  0.00     0.050 C 
HETATM   31  C8  UNL     1      -7.107  48.302 -11.317  1.00  0.00     0.050 C 
BRANCH  29  32
HETATM   32  O1  UNL     1      -7.169  50.283  -9.985  1.00  0.00    -0.387 OA
HETATM   33  H15 UNL     1      -6.721  50.757  -9.256  1.00  0.00     0.211 HD
ENDBRANCH  29  32
ENDBRANCH  28  29
ENDBRANCH  26  27
ENDBRANCH  24  26
ENDBRANCH   1  24
TORSDOF 5
ENDMDL
