MODEL 1
REMARK minimizedAffinity -8.34446907
REMARK  2 active torsions:
REMARK  status: ('A' for Active; 'I' for Inactive)
REMARK    1  A    between atoms: C14_15  and  C15_16 
REMARK    2  A    between atoms: C19_21  and  O3_22 
ROOT
HETATM    1  C1  UNL     1      -8.273   5.778  12.411  1.00  0.00     0.023 C 
HETATM    2  C2  UNL     1      -7.554   5.787  13.777  1.00  0.00     0.017 C 
HETATM    3  C3  UNL     1      -7.502   4.330  14.280  1.00  0.00     0.023 C 
HETATM    4  C4  UNL     1      -8.432   6.613  14.725  1.00  0.00     0.135 C 
HETATM    5  O1  UNL     1      -9.385   6.129  15.337  1.00  0.00    -0.297 OA
HETATM    6  C5  UNL     1      -8.137   8.088  14.808  1.00  0.00     0.080 C 
HETATM    7  C6  UNL     1      -6.697   8.373  15.221  1.00  0.00     0.017 C 
HETATM    8  C7  UNL     1      -5.653   7.244  14.908  1.00  0.00    -0.035 C 
HETATM    9  C8  UNL     1      -5.585   6.342  16.160  1.00  0.00     0.016 C 
HETATM   10  C9  UNL     1      -4.258   7.934  14.583  1.00  0.00     0.003 C 
HETATM   11  C10 UNL     1      -3.717   8.842  15.720  1.00  0.00     0.006 C 
HETATM   12  C11 UNL     1      -2.463   9.643  15.337  1.00  0.00     0.006 C 
HETATM   13  C12 UNL     1      -1.392   8.708  14.790  1.00  0.00    -0.000 C 
HETATM   14  C13 UNL     1      -0.001   9.277  14.520  1.00  0.00     0.008 C 
HETATM   15  C14 UNL     1       0.642  10.382  15.367  1.00  0.00     0.030 C 
HETATM   16  C18 UNL     1       2.162  10.219  15.052  1.00  0.00     0.040 C 
HETATM   17  C19 UNL     1       2.312   8.901  14.256  1.00  0.00     0.127 C 
HETATM   18  C20 UNL     1       1.030   8.115  14.593  1.00  0.00    -0.013 C 
HETATM   19  C21 UNL     1       1.231   7.495  16.009  1.00  0.00     0.018 C 
HETATM   20  C22 UNL     1       0.626   6.962  13.646  1.00  0.00     0.013 C 
HETATM   21  C23 UNL     1      -0.676   7.152  12.843  1.00  0.00     0.011 C 
HETATM   22  C24 UNL     1      -1.883   7.932  13.508  1.00  0.00    -0.032 C 
HETATM   23  C25 UNL     1      -2.328   8.945  12.391  1.00  0.00     0.016 C 
HETATM   24  C26 UNL     1      -3.134   7.004  13.953  1.00  0.00    -0.032 C 
HETATM   25  C27 UNL     1      -2.629   5.928  14.956  1.00  0.00     0.016 C 
HETATM   26  C28 UNL     1      -3.764   6.258  12.743  1.00  0.00     0.011 C 
HETATM   27  C29 UNL     1      -5.073   5.528  13.060  1.00  0.00     0.007 C 
HETATM   28  C30 UNL     1      -6.147   6.472  13.631  1.00  0.00     0.009 C 
ENDROOT
BRANCH  15  29
HETATM   29  C15 UNL     1       0.159  11.790  15.082  1.00  0.00     0.083 A 
HETATM   30  C16 UNL     1       1.155  12.857  14.734  1.00  0.00     0.049 C 
HETATM   31  C17 UNL     1      -1.295  12.015  14.709  1.00  0.00     0.207 A 
HETATM   32  O2  UNL     1      -0.822  12.238  16.039  1.00  0.00    -0.375 OA
ENDBRANCH  15  29
BRANCH  17  33
HETATM   33  O3  UNL     1       2.368   9.195  12.862  1.00  0.00    -0.395 OA
HETATM   34  H30 UNL     1       3.170   9.724  12.710  1.00  0.00     0.210 HD
ENDBRANCH  17  33
TORSDOF 2
ENDMDL
