MODEL 1
REMARK minimizedAffinity -6.00498104
REMARK CNNscore 0.364985764
REMARK CNNaffinity 6.02229691
REMARK  8 active torsions:
REMARK  status: ('A' for Active; 'I' for Inactive)
REMARK    1  A    between atoms: C5_5  and  C6_6 
REMARK    2  A    between atoms: C6_6  and  O1_9 
REMARK    3  A    between atoms: C11_12  and  C12_13 
REMARK    4  A    between atoms: C12_13  and  C13_14 
REMARK    5  A    between atoms: C17_18  and  O2_19 
REMARK    6  A    between atoms: C18_20  and  C19_21 
REMARK    7  A    between atoms: C20_23  and  O4_24 
REMARK    8  A    between atoms: C21_25  and  C22_26 
ROOT
HETATM    1  C1  UNL     1       1.465  57.189  -7.211  1.00  0.00     0.019 C 
HETATM    2  C2  UNL     1       1.065  55.922  -7.414  1.00  0.00    -0.068 C 
HETATM    3  C3  UNL     1      -0.293  55.683  -7.829  1.00  0.00     0.003 C 
HETATM    4  C4  UNL     1      -0.816  55.237  -8.980  1.00  0.00    -0.019 C 
HETATM    5  C5  UNL     1      -0.338  54.757 -10.354  1.00  0.00     0.042 C 
HETATM    6  C9  UNL     1       1.181  54.895 -10.728  1.00  0.00     0.020 C 
HETATM    7  C10 UNL     1       2.266  53.867 -10.288  1.00  0.00     0.030 C 
HETATM    8  C11 UNL     1       2.436  52.584 -11.170  1.00  0.00     0.031 C 
HETATM    9  C16 UNL     1       3.346  51.661 -10.379  1.00  0.00     0.015 A 
HETATM   10  C17 UNL     1       3.136  50.280 -10.214  1.00  0.00     0.091 A 
HETATM   11  C18 UNL     1       4.054  49.495  -9.492  1.00  0.00     0.069 A 
HETATM   12  C20 UNL     1       5.179  50.086  -8.898  1.00  0.00     0.097 A 
HETATM   13  C21 UNL     1       5.387  51.462  -9.037  1.00  0.00     0.070 A 
HETATM   14  C23 UNL     1       4.476  52.237  -9.777  1.00  0.00     0.095 A 
HETATM   15  O6  UNL     1       4.757  53.567  -9.927  1.00  0.00    -0.338 OA
HETATM   16  C24 UNL     1       3.678  54.522 -10.048  1.00  0.00     0.068 C 
HETATM   17  C25 UNL     1       4.119  55.472 -11.193  1.00  0.00     0.047 C 
HETATM   18  C26 UNL     1       3.767  55.389  -8.761  1.00  0.00     0.039 C 
HETATM   19  C27 UNL     1       3.384  54.745  -7.420  1.00  0.00     0.007 C 
HETATM   20  C28 UNL     1       1.898  54.716  -7.050  1.00  0.00     0.038 C 
ENDROOT
BRANCH   5  21
HETATM   21  C6  UNL     1      -1.106  53.435 -10.742  1.00  0.00     0.057 C 
HETATM   22  C7  UNL     1      -2.630  53.600 -10.772  1.00  0.00     0.046 C 
HETATM   23  C8  UNL     1      -0.655  52.216  -9.931  1.00  0.00     0.046 C 
BRANCH  21  24
HETATM   24  O1  UNL     1      -0.776  53.091 -12.112  1.00  0.00    -0.390 OA
HETATM   25  H12 UNL     1       0.178  52.907 -12.165  1.00  0.00     0.210 HD
ENDBRANCH  21  24
ENDBRANCH   5  21
BRANCH   8  26
HETATM   26  C12 UNL     1       2.940  52.787 -12.622  1.00  0.00     0.014 C 
BRANCH  26  27
HETATM   27  C13 UNL     1       2.854  51.522 -13.514  1.00  0.00    -0.022 C 
HETATM   28  C14 UNL     1       1.391  51.148 -13.770  1.00  0.00     0.009 C 
HETATM   29  C15 UNL     1       3.550  51.730 -14.862  1.00  0.00     0.009 C 
ENDBRANCH  26  27
ENDBRANCH   8  26
BRANCH  10  30
HETATM   30  O2  UNL     1       2.058  49.632 -10.756  1.00  0.00    -0.359 OA
HETATM   31  H26 UNL     1       1.415  50.251 -11.133  1.00  0.00     0.217 HD
ENDBRANCH  10  30
BRANCH  11  32
HETATM   32  C19 UNL     1       3.837  48.035  -9.390  1.00  0.00     0.275 C 
HETATM   33  O3  UNL     1       2.862  47.579  -8.797  1.00  0.00    -0.301 OA
ENDBRANCH  11  32
BRANCH  13  34
HETATM   34  C22 UNL     1       6.538  52.154  -8.400  1.00  0.00     0.275 C 
HETATM   35  O5  UNL     1       6.754  52.170  -7.194  1.00  0.00    -0.301 OA
ENDBRANCH  13  34
BRANCH  12  36
HETATM   36  O4  UNL     1       6.102  49.335  -8.218  1.00  0.00    -0.359 OA
HETATM   37  H28 UNL     1       5.803  48.396  -8.181  1.00  0.00     0.217 HD
ENDBRANCH  12  36
TORSDOF 8
ENDMDL
