MODEL 1
REMARK minimizedAffinity -8.29467201
REMARK CNNscore 0.349807411
REMARK CNNaffinity 6.64630318
REMARK  9 active torsions:
REMARK  status: ('A' for Active; 'I' for Inactive)
REMARK       I    between atoms: N1_1  and  C1_2 
REMARK       I    between atoms: C1_2  and  N2_3 
REMARK    1  A    between atoms: N3_4  and  C2_6 
REMARK    2  A    between atoms: C11_16  and  S1_17 
REMARK    3  A    between atoms: S1_17  and  O4_20 
REMARK    4  A    between atoms: C18_27  and  C19_28 
REMARK    5  A    between atoms: C19_28  and  C20_29 
REMARK    6  A    between atoms: C20_29  and  C21_30 
REMARK    7  A    between atoms: C21_30  and  O5_31 
REMARK    8  A    between atoms: C22_33  and  C23_34 
REMARK    9  A    between atoms: C26_37  and  O7_38 
ROOT
HETATM    1  C2  UNL     1       0.231  55.474  -8.691  1.00  0.00     0.263 C 
HETATM    2  O1  UNL     1       0.827  55.660 -10.018  1.00  0.00    -0.322 OA
HETATM    3  C3  UNL     1       2.082  55.128 -10.177  1.00  0.00     0.071 C 
HETATM    4  C4  UNL     1       3.077  56.006 -10.615  1.00  0.00     0.037 C 
HETATM    5  C5  UNL     1       4.419  55.642 -10.511  1.00  0.00     0.010 C 
HETATM    6  C6  UNL     1       4.769  54.381 -10.008  1.00  0.00    -0.058 C 
HETATM    7  C7  UNL     1       3.751  53.448  -9.749  1.00  0.00     0.010 C 
HETATM    8  C8  UNL     1       2.409  53.821  -9.827  1.00  0.00     0.037 C 
HETATM    9  C9  UNL     1       6.199  54.079  -9.626  1.00  0.00     0.040 C 
HETATM   10  C10 UNL     1       6.649  54.828  -8.347  1.00  0.00     0.027 C 
HETATM   11  C11 UNL     1       5.753  54.659  -7.091  1.00  0.00     0.130 C 
HETATM   12  C12 UNL     1       6.054  55.623  -5.879  1.00  0.00     0.037 C 
HETATM   13  C13 UNL     1       7.004  56.802  -6.053  1.00  0.00    -0.014 C 
HETATM   14  C14 UNL     1       7.262  57.559  -4.961  1.00  0.00    -0.050 C 
HETATM   15  C15 UNL     1       6.558  57.189  -3.673  1.00  0.00     0.042 C 
HETATM   16  C16 UNL     1       5.082  57.338  -4.069  1.00  0.00     0.001 C 
HETATM   17  C17 UNL     1       4.844  58.756  -4.698  1.00  0.00     0.037 C 
HETATM   18  C18 UNL     1       5.672  59.960  -4.166  1.00  0.00     0.123 C 
HETATM   19  O6  UNL     1       7.092  59.759  -4.023  1.00  0.00    -0.371 OA
HETATM   20  C22 UNL     1       7.778  58.981  -5.019  1.00  0.00     0.183 C 
HETATM   21  C29 UNL     1       4.767  56.093  -5.020  1.00  0.00     0.032 C 
HETATM   22  C30 UNL     1       3.450  56.113  -5.790  1.00  0.00    -0.053 C 
HETATM   23  C31 UNL     1       3.136  57.066  -6.766  1.00  0.00     0.008 C 
HETATM   24  C32 UNL     1       2.015  56.919  -7.593  1.00  0.00     0.012 C 
HETATM   25  C33 UNL     1       1.237  55.753  -7.551  1.00  0.00    -0.010 C 
HETATM   26  C34 UNL     1       1.504  54.828  -6.534  1.00  0.00     0.012 C 
HETATM   27  C35 UNL     1       2.574  55.019  -5.652  1.00  0.00     0.008 C 
ENDROOT
BRANCH   1  28
HETATM   28  N3  UNL     1      -0.519  54.217  -8.556  1.00  0.00    -0.341 N 
HETATM   29  C1  UNL     1      -1.400  53.902  -9.426  1.00  0.00     0.124 C 
HETATM   30  N1  UNL     1      -2.038  52.715  -9.321  1.00  0.00    -0.279 NA
HETATM   31  N2  UNL     1      -1.852  54.567 -10.513  1.00  0.00    -0.279 NA
HETATM   32  H1  UNL     1      -2.006  52.192 -10.187  1.00  0.00     0.126 HD
HETATM   33  H2  UNL     1      -1.603  52.165  -8.582  1.00  0.00     0.126 HD
HETATM   34  H3  UNL     1      -2.814  54.327 -10.724  1.00  0.00     0.126 HD
HETATM   35  H4  UNL     1      -1.749  55.572 -10.458  1.00  0.00     0.126 HD
ATOM     36  H3  UNL     1      -0.337  53.597  -7.768  1.00  0.00     0.164 HD
ENDBRANCH   1  28
BRANCH  11  37
HETATM   37  S1  UNL     1       5.806  52.931  -6.454  1.00  0.00     0.099 S 
HETATM   38  O2  UNL     1       6.738  52.136  -7.221  1.00  0.00    -0.601 OA
HETATM   39  O3  UNL     1       5.805  52.885  -5.010  1.00  0.00    -0.601 OA
BRANCH  37  40
HETATM   40  O4  UNL     1       4.319  52.467  -6.879  1.00  0.00    -0.295 OA
HETATM   41  H15 UNL     1       3.886  52.079  -6.086  1.00  0.00     0.232 HD
ENDBRANCH  37  40
ENDBRANCH  11  37
BRANCH  18  42
HETATM   42  C19 UNL     1       5.185  60.456  -2.791  1.00  0.00     0.034 C 
BRANCH  42  43
HETATM   43  C20 UNL     1       4.445  61.796  -2.846  1.00  0.00     0.028 C 
BRANCH  43  44
HETATM   44  C21 UNL     1       4.983  62.697  -3.952  1.00  0.00     0.164 C 
BRANCH  44  45
HETATM   45  O5  UNL     1       3.923  63.184  -4.762  1.00  0.00    -0.401 OA
HETATM   46  H30 UNL     1       3.474  62.415  -5.151  1.00  0.00     0.209 HD
ENDBRANCH  44  45
ENDBRANCH  43  44
ENDBRANCH  42  43
ENDBRANCH  18  42
BRANCH  20  47
HETATM   47  C23 UNL     1       9.275  59.030  -4.763  1.00  0.00    -0.025 A 
HETATM   48  C24 UNL     1      10.063  57.867  -4.772  1.00  0.00     0.013 A 
HETATM   49  C25 UNL     1      11.446  57.937  -4.587  1.00  0.00     0.037 A 
HETATM   50  C26 UNL     1      12.046  59.179  -4.396  1.00  0.00     0.065 A 
HETATM   51  C27 UNL     1      11.290  60.343  -4.386  1.00  0.00     0.037 A 
HETATM   52  C28 UNL     1       9.908  60.271  -4.572  1.00  0.00     0.013 A 
BRANCH  50  53
HETATM   53  O7  UNL     1      13.396  59.294  -4.225  1.00  0.00    -0.361 OA
HETATM   54  H34 UNL     1      13.785  58.405  -4.265  1.00  0.00     0.217 HD
ENDBRANCH  50  53
ENDBRANCH  20  47
TORSDOF 9
ENDMDL
