MODEL 1
REMARK minimizedAffinity -7.34825945
REMARK CNNscore 0.546520293
REMARK CNNaffinity 6.84622574
REMARK  6 active torsions:
REMARK  status: ('A' for Active; 'I' for Inactive)
REMARK    1  A    between atoms: C2_2  and  C3_3 
REMARK    2  A    between atoms: C2_2  and  C27_30 
REMARK    3  A    between atoms: C3_3  and  C4_4 
REMARK    4  A    between atoms: C4_4  and  C5_5 
REMARK    5  A    between atoms: C5_5  and  C7_7 
REMARK    6  A    between atoms: C26_28  and  O3_29 
ROOT
HETATM    1  C7  UNL     1       3.477  56.162  -9.384  1.00  0.00    -0.002 C 
HETATM    2  C8  UNL     1       4.328  55.314 -10.365  1.00  0.00     0.006 C 
HETATM    3  C9  UNL     1       3.399  54.262 -10.981  1.00  0.00     0.010 C 
HETATM    4  C10 UNL     1       2.005  54.671 -10.514  1.00  0.00     0.027 C 
HETATM    5  C11 UNL     1       0.850  53.700 -10.584  1.00  0.00    -0.036 C 
HETATM    6  C12 UNL     1      -0.243  53.861  -9.797  1.00  0.00     0.002 C 
HETATM    7  C13 UNL     1      -0.233  54.981  -8.772  1.00  0.00     0.157 C 
HETATM    8  O1  UNL     1      -1.194  55.156  -8.022  1.00  0.00    -0.293 OA
HETATM    9  C14 UNL     1       0.963  55.916  -8.676  1.00  0.00     0.093 C 
HETATM   10  C15 UNL     1       2.263  55.225  -9.091  1.00  0.00    -0.026 C 
HETATM   11  C16 UNL     1       2.637  54.130  -8.058  1.00  0.00     0.016 C 
HETATM   12  C17 UNL     1      -1.493  52.961  -9.889  1.00  0.00    -0.008 C 
HETATM   13  C18 UNL     1      -1.443  52.014  -8.661  1.00  0.00     0.021 C 
HETATM   14  C19 UNL     1      -2.824  53.782  -9.850  1.00  0.00     0.022 C 
HETATM   15  C20 UNL     1      -3.993  53.200 -10.645  1.00  0.00     0.080 C 
HETATM   16  C21 UNL     1      -3.920  51.699 -10.746  1.00  0.00     0.131 C 
HETATM   17  O2  UNL     1      -4.880  50.986 -10.457  1.00  0.00    -0.298 OA
HETATM   18  C22 UNL     1      -2.632  51.111 -11.301  1.00  0.00     0.056 C 
HETATM   19  C23 UNL     1      -2.904  50.613 -12.721  1.00  0.00     0.018 C 
HETATM   20  C24 UNL     1      -1.495  52.158 -11.240  1.00  0.00     0.012 C 
HETATM   21  C25 UNL     1      -0.122  51.530 -11.513  1.00  0.00     0.042 C 
HETATM   22  C26 UNL     1       0.953  52.611 -11.619  1.00  0.00     0.148 C 
ENDROOT
BRANCH   1  23
HETATM   23  C5  UNL     1       4.312  56.740  -8.200  1.00  0.00    -0.014 C 
HETATM   24  C6  UNL     1       5.605  55.941  -7.985  1.00  0.00     0.010 C 
BRANCH  23  25
HETATM   25  C4  UNL     1       3.516  56.727  -6.862  1.00  0.00     0.009 C 
BRANCH  25  26
HETATM   26  C3  UNL     1       2.841  58.042  -6.443  1.00  0.00     0.034 C 
BRANCH  26  27
HETATM   27  C2  UNL     1       2.660  58.269  -4.952  1.00  0.00    -0.086 C 
HETATM   28  C1  UNL     1       3.520  59.062  -4.284  1.00  0.00     0.014 C 
BRANCH  27  29
HETATM   29  C27 UNL     1       1.458  57.681  -4.218  1.00  0.00     0.005 C 
HETATM   30  C28 UNL     1       0.829  58.637  -3.201  1.00  0.00     0.014 C 
HETATM   31  C29 UNL     1       0.396  57.131  -5.172  1.00  0.00     0.014 C 
ENDBRANCH  27  29
ENDBRANCH  26  27
ENDBRANCH  25  26
ENDBRANCH  23  25
ENDBRANCH   1  23
BRANCH  22  32
HETATM   32  O3  UNL     1       0.861  53.247 -12.890  1.00  0.00    -0.391 OA
HETATM   33  H37 UNL     1       1.071  52.580 -13.565  1.00  0.00     0.210 HD
ENDBRANCH  22  32
TORSDOF 6
ENDMDL
