MODEL 1
REMARK minimizedAffinity -8.92295837
REMARK CNNscore 0.654538393
REMARK CNNaffinity 7.21701097
REMARK  6 active torsions:
REMARK  status: ('A' for Active; 'I' for Inactive)
REMARK    1  A    between atoms: C2_2  and  O2_4 
REMARK    2  A    between atoms: O2_4  and  C3_5 
REMARK    3  A    between atoms: C13_15  and  C14_16 
REMARK    4  A    between atoms: C14_16  and  C16_18 
REMARK    5  A    between atoms: C16_18  and  C17_19 
REMARK    6  A    between atoms: C17_19  and  C18_20 
ROOT
HETATM    1  C3  UNL     1      -5.856   5.138  13.339  1.00  0.00     0.132 C 
HETATM    2  C4  UNL     1      -4.923   4.190  12.579  1.00  0.00     0.033 C 
HETATM    3  C5  UNL     1      -3.746   4.932  11.947  1.00  0.00     0.013 C 
HETATM    4  C6  UNL     1      -3.004   5.740  13.000  1.00  0.00    -0.028 A 
HETATM    5  C7  UNL     1      -1.940   5.024  13.793  1.00  0.00     0.021 A 
HETATM    6  C8  UNL     1      -1.522   6.112  12.810  1.00  0.00    -0.027 A 
HETATM    7  C9  UNL     1      -0.760   5.606  11.599  1.00  0.00     0.011 C 
HETATM    8  C10 UNL     1       0.731   5.792  11.810  1.00  0.00     0.011 C 
HETATM    9  C11 UNL     1       1.191   7.263  11.915  1.00  0.00    -0.032 C 
HETATM   10  C12 UNL     1       2.433   7.250  12.841  1.00  0.00     0.016 C 
HETATM   11  C13 UNL     1       1.521   7.965  10.549  1.00  0.00    -0.002 C 
HETATM   12  C22 UNL     1       0.167   8.448  10.017  1.00  0.00     0.006 C 
HETATM   13  C23 UNL     1      -0.701   8.745  11.233  1.00  0.00     0.011 C 
HETATM   14  C24 UNL     1       0.031   8.192  12.491  1.00  0.00    -0.032 C 
HETATM   15  C25 UNL     1       0.608   9.423  13.249  1.00  0.00     0.016 C 
HETATM   16  C26 UNL     1      -0.956   7.412  13.445  1.00  0.00     0.004 C 
HETATM   17  C27 UNL     1      -2.062   8.342  14.001  1.00  0.00     0.006 C 
HETATM   18  C28 UNL     1      -3.198   7.614  14.704  1.00  0.00     0.006 C 
HETATM   19  C29 UNL     1      -3.929   6.720  13.707  1.00  0.00    -0.003 C 
HETATM   20  C30 UNL     1      -5.077   5.956  14.378  1.00  0.00     0.038 C 
ENDROOT
BRANCH  11  21
HETATM   21  C14 UNL     1       2.423   7.342   9.434  1.00  0.00    -0.014 C 
HETATM   22  C15 UNL     1       2.964   5.963   9.826  1.00  0.00     0.010 C 
BRANCH  21  23
HETATM   23  C16 UNL     1       1.870   7.325   7.988  1.00  0.00     0.008 C 
BRANCH  23  24
HETATM   24  C17 UNL     1       2.535   6.252   7.111  1.00  0.00     0.028 C 
BRANCH  24  25
HETATM   25  C18 UNL     1       3.290   5.254   7.949  1.00  0.00    -0.025 C 
HETATM   26  C19 UNL     1       3.822   4.083   7.550  1.00  0.00    -0.091 C 
HETATM   27  C20 UNL     1       3.709   3.513   6.162  1.00  0.00     0.042 C 
HETATM   28  C21 UNL     1       4.594   3.222   8.516  1.00  0.00     0.042 C 
ENDBRANCH  24  25
ENDBRANCH  23  24
ENDBRANCH  21  23
ENDBRANCH  11  21
BRANCH   1  29
HETATM   29  O2  UNL     1      -6.852   4.325  13.989  1.00  0.00    -0.316 OA
BRANCH  29  30
HETATM   30  C2  UNL     1      -7.817   3.799  13.186  1.00  0.00     0.255 C 
HETATM   31  C1  UNL     1      -7.569   2.336  12.984  1.00  0.00     0.126 C 
HETATM   32  O1  UNL     1      -8.745   4.417  12.687  1.00  0.00    -0.266 OA
ENDBRANCH  29  30
ENDBRANCH   1  29
TORSDOF 6
ENDMDL
