MODEL 1
REMARK minimizedAffinity -4.09937191
REMARK  0 active torsions:
REMARK  status: ('A' for Active; 'I' for Inactive)
ROOT
HETATM    1 CL1  UNL     1      -2.879   3.581  10.285  1.00  0.00     0.000 Cl
HETATM    2 RU1  UNL     1      -5.456   3.550  10.553  1.00  0.00     0.000 Ru
HETATM    3 CL2  UNL     1      -4.595   4.039  12.664  1.00  0.00     0.000 Cl
HETATM    4 CL3  UNL     1      -5.600   4.083  12.515  1.00  0.00     0.000 Cl
HETATM    5 CL4  UNL     1      -5.820   1.551  11.088  1.00  0.00     0.000 Cl
HETATM    6 CL5  UNL     1      -6.497   1.184  11.841  1.00  0.00     0.000 Cl
HETATM    7 CL6  UNL     1      -5.584   3.464   8.365  1.00  0.00     0.000 Cl
ENDROOT
TORSDOF 0
ENDMDL
