MODEL 1
REMARK minimizedAffinity -7.108953
REMARK CNNscore 0.791222095
REMARK CNNaffinity 6.71231794
REMARK  8 active torsions:
REMARK  status: ('A' for Active; 'I' for Inactive)
REMARK    1  A    between atoms: O1_2  and  C2_3 
REMARK    2  A    between atoms: C2_3  and  C5_6 
REMARK    3  A    between atoms: C6_7  and  C7_8 
REMARK    4  A    between atoms: C7_8  and  C8_9 
REMARK    5  A    between atoms: C8_9  and  C10_11 
REMARK    6  A    between atoms: C16_17  and  O2_18 
REMARK    7  A    between atoms: C19_21  and  C21_23 
REMARK    8  A    between atoms: C21_23  and  O3_24 
ROOT
HETATM    1  C10 UNL     1       5.206  56.266  -7.935  1.00  0.00    -0.002 C 
HETATM    2  C11 UNL     1       3.996  57.182  -7.915  1.00  0.00     0.006 C 
HETATM    3  C12 UNL     1       3.425  57.047  -9.320  1.00  0.00     0.011 C 
HETATM    4  C13 UNL     1       3.809  55.622  -9.872  1.00  0.00    -0.030 C 
HETATM    5  C14 UNL     1       4.542  55.873 -11.213  1.00  0.00     0.016 C 
HETATM    6  C15 UNL     1       2.492  54.812 -10.149  1.00  0.00     0.032 C 
HETATM    7  C16 UNL     1       2.562  53.565 -11.074  1.00  0.00     0.124 C 
HETATM    8  C17 UNL     1       1.332  52.638 -10.992  1.00  0.00     0.038 C 
HETATM    9  C18 UNL     1       0.051  53.316 -10.464  1.00  0.00     0.015 C 
HETATM   10  C19 UNL     1      -1.211  52.393 -10.591  1.00  0.00     0.042 C 
HETATM   11  C20 UNL     1      -0.943  50.884 -10.388  1.00  0.00     0.026 C 
HETATM   12  C22 UNL     1      -2.263  52.790  -9.555  1.00  0.00     0.137 C 
HETATM   13  O4  UNL     1      -3.463  52.872  -9.846  1.00  0.00    -0.297 OA
HETATM   14  C23 UNL     1      -1.830  52.999  -8.121  1.00  0.00     0.080 C 
HETATM   15  C24 UNL     1      -0.319  52.996  -7.940  1.00  0.00     0.018 C 
HETATM   16  C25 UNL     1       0.331  53.807  -9.033  1.00  0.00    -0.026 A 
HETATM   17  C26 UNL     1       0.403  55.281  -8.729  1.00  0.00     0.021 A 
HETATM   18  C27 UNL     1       1.699  54.503  -8.870  1.00  0.00    -0.025 A 
HETATM   19  C28 UNL     1       2.517  54.205  -7.633  1.00  0.00     0.011 C 
HETATM   20  C29 UNL     1       3.989  53.933  -7.918  1.00  0.00     0.011 C 
HETATM   21  C30 UNL     1       4.744  55.004  -8.748  1.00  0.00    -0.032 C 
HETATM   22  C31 UNL     1       6.031  54.322  -9.285  1.00  0.00     0.016 C 
ENDROOT
BRANCH   1  23
HETATM   23  C8  UNL     1       5.906  56.023  -6.565  1.00  0.00    -0.010 C 
HETATM   24  C9  UNL     1       5.272  54.928  -5.696  1.00  0.00     0.010 C 
BRANCH  23  25
HETATM   25  C7  UNL     1       5.968  57.316  -5.711  1.00  0.00     0.031 C 
BRANCH  25  26
HETATM   26  C6  UNL     1       7.354  57.642  -5.228  1.00  0.00    -0.027 C 
HETATM   27  C5  UNL     1       7.843  58.893  -5.136  1.00  0.00     0.006 C 
BRANCH  27  28
HETATM   28  C2  UNL     1       9.238  59.295  -4.692  1.00  0.00     0.070 C 
HETATM   29  C3  UNL     1       9.428  60.780  -5.035  1.00  0.00     0.050 C 
HETATM   30  C4  UNL     1       9.332  59.070  -3.176  1.00  0.00     0.050 C 
BRANCH  28  31
HETATM   31  O1  UNL     1      10.182  58.480  -5.399  1.00  0.00    -0.382 OA
HETATM   32  C1  UNL     1      11.120  57.752  -4.625  1.00  0.00     0.202 C 
ENDBRANCH  28  31
ENDBRANCH  27  28
ENDBRANCH  25  26
ENDBRANCH  23  25
ENDBRANCH   1  23
BRANCH   7  33
HETATM   33  O2  UNL     1       3.717  52.765 -10.839  1.00  0.00    -0.395 OA
HETATM   34  H28 UNL     1       3.754  52.087 -11.535  1.00  0.00     0.210 HD
ENDBRANCH   7  33
BRANCH  10  35
HETATM   35  C21 UNL     1      -1.828  52.531 -12.005  1.00  0.00     0.181 C 
BRANCH  35  36
HETATM   36  O3  UNL     1      -0.840  52.519 -13.026  1.00  0.00    -0.400 OA
HETATM   37  H37 UNL     1      -0.651  53.454 -13.246  1.00  0.00     0.209 HD
ENDBRANCH  35  36
ENDBRANCH  10  35
TORSDOF 8
ENDMDL
