MODEL 1
REMARK minimizedAffinity -9.73315239
REMARK  6 active torsions:
REMARK  status: ('A' for Active; 'I' for Inactive)
REMARK    1  A    between atoms: C12_13  and  C13_14 
REMARK    2  A    between atoms: C13_14  and  C15_16 
REMARK    3  A    between atoms: C15_16  and  C16_17 
REMARK    4  A    between atoms: C16_17  and  C17_18 
REMARK    5  A    between atoms: C18_19  and  C20_21 
REMARK    6  A    between atoms: C20_21  and  O3_23 
ROOT
HETATM    1  C1  UNL     1      -2.507  51.217 -27.435  1.00  0.00     0.052 C 
HETATM    2  C2  UNL     1      -1.599  51.762 -26.369  1.00  0.00    -0.013 C 
HETATM    3  C3  UNL     1      -1.972  52.159 -25.132  1.00  0.00    -0.066 C 
HETATM    4  C4  UNL     1      -3.379  52.059 -24.592  1.00  0.00     0.036 C 
HETATM    5  C5  UNL     1      -3.402  51.083 -23.409  1.00  0.00     0.010 C 
HETATM    6  C6  UNL     1      -2.376  51.474 -22.315  1.00  0.00     0.007 C 
HETATM    7  C7  UNL     1      -0.956  51.621 -22.954  1.00  0.00     0.068 C 
HETATM    8  C8  UNL     1       0.069  51.916 -21.877  1.00  0.00     0.133 C 
HETATM    9  O1  UNL     1       1.279  51.899 -22.111  1.00  0.00    -0.298 OA
HETATM   10  C9  UNL     1      -0.443  52.236 -20.501  1.00  0.00     0.089 C 
HETATM   11  C10 UNL     1      -1.418  51.165 -19.914  1.00  0.00    -0.026 C 
HETATM   12  C11 UNL     1      -2.188  51.941 -18.821  1.00  0.00     0.016 C 
HETATM   13  C12 UNL     1      -0.584  49.918 -19.389  1.00  0.00    -0.002 C 
HETATM   14  C21 UNL     1      -0.452  49.060 -20.655  1.00  0.00     0.006 C 
HETATM   15  C22 UNL     1      -1.813  49.134 -21.322  1.00  0.00     0.011 C 
HETATM   16  C23 UNL     1      -2.379  50.554 -21.038  1.00  0.00    -0.032 C 
HETATM   17  C24 UNL     1      -3.835  50.365 -20.546  1.00  0.00     0.016 C 
HETATM   18  C25 UNL     1      -1.004  52.689 -24.075  1.00  0.00     0.027 C 
HETATM   19  C26 UNL     1       0.326  53.107 -24.712  1.00  0.00     0.018 C 
HETATM   20  C27 UNL     1       0.869  52.048 -25.646  1.00  0.00     0.084 C 
HETATM   21  C28 UNL     1      -0.139  51.774 -26.736  1.00  0.00     0.155 C 
HETATM   22  O4  UNL     1       0.221  51.510 -27.883  1.00  0.00    -0.293 OA
ENDROOT
BRANCH  13  23
HETATM   23  C13 UNL     1      -1.176  49.169 -18.137  1.00  0.00    -0.014 C 
HETATM   24  C14 UNL     1      -2.541  49.784 -17.779  1.00  0.00     0.010 C 
BRANCH  23  25
HETATM   25  C15 UNL     1      -0.249  49.168 -16.892  1.00  0.00     0.008 C 
BRANCH  25  26
HETATM   26  C16 UNL     1      -0.218  50.472 -16.073  1.00  0.00     0.028 C 
BRANCH  26  27
HETATM   27  C17 UNL     1       0.936  51.377 -16.411  1.00  0.00    -0.013 C 
HETATM   28  C18 UNL     1       2.077  51.552 -15.712  1.00  0.00     0.008 C 
HETATM   29  C19 UNL     1       2.449  50.837 -14.449  1.00  0.00     0.055 C 
BRANCH  28  30
HETATM   30  C20 UNL     1       3.050  52.531 -16.265  1.00  0.00     0.171 C 
HETATM   31  O2  UNL     1       4.238  52.608 -16.004  1.00  0.00    -0.646 OA
BRANCH  30  32
HETATM   32  O3  UNL     1       2.481  53.375 -17.141  1.00  0.00    -0.773 OA
HETATM   33  H28 UNL     1       3.227  53.951 -17.413  1.00  0.00     0.167 HD
ENDBRANCH  30  32
ENDBRANCH  28  30
ENDBRANCH  26  27
ENDBRANCH  25  26
ENDBRANCH  23  25
ENDBRANCH  13  23
TORSDOF 6
ENDMDL
