MODEL 1
REMARK minimizedAffinity -7.9545126
REMARK CNNscore 0.364257514
REMARK CNNaffinity 6.91031456
REMARK  13 active torsions:
REMARK  status: ('A' for Active; 'I' for Inactive)
REMARK    1  A    between atoms: O1_2  and  C2_3 
REMARK    2  A    between atoms: C12_14  and  C13_15 
REMARK    3  A    between atoms: C13_15  and  C15_17 
REMARK    4  A    between atoms: C15_17  and  C16_18 
REMARK    5  A    between atoms: C17_19  and  C18_20 
REMARK    6  A    between atoms: C18_20  and  O3_23 
REMARK    7  A    between atoms: C28_31  and  O4_32 
REMARK    8  A    between atoms: O4_32  and  C29_33 
REMARK    9  A    between atoms: C30_35  and  C31_36 
REMARK   10  A    between atoms: C31_36  and  O6_37 
REMARK   11  A    between atoms: C32_38  and  O7_39 
REMARK   12  A    between atoms: C33_40  and  O8_41 
REMARK   13  A    between atoms: C34_42  and  O9_43 
ROOT
HETATM    1  C2  UNL     1       0.994  51.913  -9.266  1.00  0.00     0.270 C 
HETATM    2  O2  UNL     1       1.159  51.010 -10.386  1.00  0.00    -0.344 OA
HETATM    3  C3  UNL     1       1.971  51.675 -11.388  1.00  0.00     0.095 C 
HETATM    4  C4  UNL     1       3.393  51.318 -10.984  1.00  0.00     0.008 C 
HETATM    5  C5  UNL     1       4.041  51.963 -10.006  1.00  0.00    -0.021 C 
HETATM    6  C6  UNL     1       3.354  53.016  -9.175  1.00  0.00     0.030 C 
HETATM    7  C7  UNL     1       1.819  53.213  -9.577  1.00  0.00     0.024 C 
HETATM    8  C8  UNL     1       1.191  54.426  -8.816  1.00  0.00     0.016 C 
HETATM    9  C9  UNL     1       2.059  55.687  -8.647  1.00  0.00     0.011 C 
HETATM   10  C10 UNL     1       3.440  55.335  -8.083  1.00  0.00    -0.032 C 
HETATM   11  C11 UNL     1       3.230  54.723  -6.667  1.00  0.00     0.016 C 
HETATM   12  C12 UNL     1       4.482  56.488  -8.017  1.00  0.00    -0.002 C 
HETATM   13  C21 UNL     1       5.839  55.733  -7.984  1.00  0.00     0.006 C 
HETATM   14  C22 UNL     1       5.557  54.288  -8.472  1.00  0.00     0.011 C 
HETATM   15  C23 UNL     1       4.149  54.357  -9.101  1.00  0.00    -0.029 C 
HETATM   16  C24 UNL     1       4.359  54.947 -10.536  1.00  0.00     0.016 C 
HETATM   17  C25 UNL     1       1.641  53.166 -11.127  1.00  0.00     0.039 C 
HETATM   18  C26 UNL     1       0.215  53.555 -11.603  1.00  0.00     0.011 C 
HETATM   19  C27 UNL     1      -0.495  52.512 -12.455  1.00  0.00     0.033 C 
HETATM   20  C28 UNL     1       0.447  51.956 -13.503  1.00  0.00     0.136 C 
HETATM   21  C35 UNL     1       1.636  51.167 -12.848  1.00  0.00     0.014 C 
HETATM   22  C36 UNL     1       2.830  51.368 -13.826  1.00  0.00     0.021 C 
HETATM   23  C37 UNL     1       1.331  49.645 -12.805  1.00  0.00     0.021 C 
ENDROOT
BRANCH  20  24
HETATM   24  O4  UNL     1      -0.225  51.094 -14.430  1.00  0.00    -0.352 OA
BRANCH  24  25
HETATM   25  C29 UNL     1       0.598  50.199 -15.167  1.00  0.00     0.292 C 
HETATM   26  O5  UNL     1       1.123  50.801 -16.353  1.00  0.00    -0.348 OA
HETATM   27  C30 UNL     1       0.216  50.931 -17.459  1.00  0.00     0.179 C 
HETATM   28  C32 UNL     1      -1.261  50.682 -17.110  1.00  0.00     0.180 C 
HETATM   29  C33 UNL     1      -1.421  49.314 -16.430  1.00  0.00     0.183 C 
HETATM   30  C34 UNL     1      -0.223  48.949 -15.534  1.00  0.00     0.204 C 
BRANCH  27  31
HETATM   31  C31 UNL     1       0.412  52.319 -18.092  1.00  0.00     0.198 C 
BRANCH  31  32
HETATM   32  O6  UNL     1       1.102  53.215 -17.229  1.00  0.00    -0.398 OA
HETATM   33  H48 UNL     1       1.876  52.723 -16.873  1.00  0.00     0.209 HD
ENDBRANCH  31  32
ENDBRANCH  27  31
BRANCH  28  34
HETATM   34  O7  UNL     1      -2.085  50.744 -18.283  1.00  0.00    -0.390 OA
HETATM   35  H50 UNL     1      -2.221  49.807 -18.547  1.00  0.00     0.210 HD
ENDBRANCH  28  34
BRANCH  29  36
HETATM   36  O8  UNL     1      -1.614  48.313 -17.455  1.00  0.00    -0.390 OA
HETATM   37  H52 UNL     1      -0.978  47.594 -17.245  1.00  0.00     0.210 HD
ENDBRANCH  29  36
BRANCH  30  38
HETATM   38  O9  UNL     1       0.592  47.970 -16.215  1.00  0.00    -0.388 OA
HETATM   39  H54 UNL     1       1.260  48.462 -16.733  1.00  0.00     0.210 HD
ENDBRANCH  30  38
ENDBRANCH  24  25
ENDBRANCH  20  24
BRANCH   1  40
HETATM   40  O1  UNL     1       1.370  51.334  -8.022  1.00  0.00    -0.365 OA
HETATM   41  C1  UNL     1       1.364  49.915  -8.072  1.00  0.00     0.204 C 
ENDBRANCH   1  40
BRANCH  12  42
HETATM   42  C13 UNL     1       4.312  57.713  -7.073  1.00  0.00    -0.010 C 
HETATM   43  C14 UNL     1       5.008  57.416  -5.728  1.00  0.00     0.010 C 
BRANCH  42  44
HETATM   44  C15 UNL     1       2.926  58.337  -6.793  1.00  0.00     0.031 C 
BRANCH  44  45
HETATM   45  C16 UNL     1       2.170  57.854  -5.588  1.00  0.00    -0.027 C 
HETATM   46  C17 UNL     1       0.932  57.331  -5.634  1.00  0.00     0.006 C 
BRANCH  46  47
HETATM   47  C18 UNL     1       0.112  56.806  -4.478  1.00  0.00     0.068 C 
HETATM   48  C19 UNL     1      -0.716  57.854  -3.727  1.00  0.00     0.050 C 
HETATM   49  C20 UNL     1       1.018  56.059  -3.497  1.00  0.00     0.050 C 
BRANCH  47  50
HETATM   50  O3  UNL     1      -0.800  55.855  -5.032  1.00  0.00    -0.387 OA
HETATM   51  H30 UNL     1      -1.303  56.318  -5.725  1.00  0.00     0.211 HD
ENDBRANCH  47  50
ENDBRANCH  46  47
ENDBRANCH  44  45
ENDBRANCH  42  44
ENDBRANCH  12  42
TORSDOF 13
ENDMDL
