MODEL 1
REMARK minimizedAffinity -8.26519394
REMARK CNNscore 0.719150007
REMARK CNNaffinity 7.0146699
REMARK  9 active torsions:
REMARK  status: ('A' for Active; 'I' for Inactive)
REMARK    1  A    between atoms: C2_2  and  C35_40 
REMARK    2  A    between atoms: C3_3  and  C4_4 
REMARK    3  A    between atoms: C4_4  and  O1_5 
REMARK    4  A    between atoms: C4_4  and  C5_6 
REMARK    5  A    between atoms: C5_6  and  C6_7 
REMARK    6  A    between atoms: C6_7  and  C8_9 
REMARK    7  A    between atoms: C10_11  and  O2_12 
REMARK    8  A    between atoms: C33_37  and  O5_38 
REMARK    9  A    between atoms: C35_40  and  O7_42 
ROOT
HETATM    1  C8  UNL     1      -9.002  45.322 -33.686  1.00  0.00     0.002 C 
HETATM    2  C9  UNL     1      -8.961  46.871 -33.671  1.00  0.00     0.038 C 
HETATM    3  C10 UNL     1      -8.851  47.290 -32.210  1.00  0.00     0.132 C 
HETATM    4  C11 UNL     1      -9.775  46.276 -31.486  1.00  0.00     0.017 C 
HETATM    5  C12 UNL     1     -11.253  46.659 -31.840  1.00  0.00     0.023 C 
HETATM    6  C13 UNL     1      -9.578  46.253 -29.953  1.00  0.00    -0.029 C 
HETATM    7  C14 UNL     1      -8.918  45.269 -29.292  1.00  0.00     0.003 C 
HETATM    8  C15 UNL     1      -7.984  44.405 -30.080  1.00  0.00     0.157 C 
HETATM    9  O3  UNL     1      -7.070  43.784 -29.535  1.00  0.00    -0.293 OA
HETATM   10  C16 UNL     1      -8.111  44.314 -31.572  1.00  0.00     0.094 C 
HETATM   11  C17 UNL     1      -9.409  44.894 -32.179  1.00  0.00    -0.016 C 
HETATM   12  C18 UNL     1     -10.556  43.809 -32.081  1.00  0.00     0.011 C 
HETATM   13  C19 UNL     1     -11.231  43.500 -30.726  1.00  0.00     0.001 C 
HETATM   14  C20 UNL     1     -10.474  42.541 -29.805  1.00  0.00     0.000 C 
HETATM   15  C21 UNL     1     -10.708  42.775 -28.306  1.00  0.00     0.001 C 
HETATM   16  C22 UNL     1     -10.566  44.199 -27.721  1.00  0.00     0.015 C 
HETATM   17  C23 UNL     1      -9.176  44.981 -27.785  1.00  0.00    -0.003 C 
HETATM   18  C24 UNL     1      -8.108  44.093 -27.097  1.00  0.00     0.022 C 
HETATM   19  C25 UNL     1      -8.289  43.938 -25.599  1.00  0.00     0.080 C 
HETATM   20  C26 UNL     1      -8.310  45.259 -24.877  1.00  0.00     0.136 C 
HETATM   21  O4  UNL     1      -8.199  45.278 -23.648  1.00  0.00    -0.297 OA
HETATM   22  C27 UNL     1      -8.445  46.543 -25.703  1.00  0.00     0.025 C 
HETATM   23  C28 UNL     1      -9.064  47.629 -24.777  1.00  0.00     0.024 C 
HETATM   24  C29 UNL     1      -7.023  47.003 -26.108  1.00  0.00     0.044 C 
HETATM   25  C30 UNL     1      -6.992  47.907 -27.300  1.00  0.00    -0.029 C 
HETATM   26  C31 UNL     1      -8.071  48.194 -28.042  1.00  0.00    -0.023 C 
HETATM   27  C32 UNL     1      -9.449  47.601 -27.809  1.00  0.00     0.047 C 
HETATM   28  C33 UNL     1     -10.222  47.348 -29.125  1.00  0.00     0.156 C 
HETATM   29  C34 UNL     1      -9.396  46.322 -26.934  1.00  0.00     0.025 C 
ENDROOT
BRANCH   1  30
HETATM   30  C6  UNL     1      -9.784  44.714 -34.893  1.00  0.00    -0.011 C 
HETATM   31  C7  UNL     1      -9.099  43.427 -35.383  1.00  0.00     0.010 C 
BRANCH  30  32
HETATM   32  C5  UNL     1      -9.894  45.688 -36.098  1.00  0.00     0.040 C 
BRANCH  32  33
HETATM   33  C4  UNL     1     -11.332  45.991 -36.567  1.00  0.00     0.142 C 
BRANCH  33  34
HETATM   34  C3  UNL     1     -11.396  47.177 -37.482  1.00  0.00     0.018 C 
HETATM   35  C2  UNL     1     -12.442  47.999 -37.708  1.00  0.00     0.010 C 
HETATM   36  C1  UNL     1     -13.808  47.894 -37.102  1.00  0.00     0.055 C 
BRANCH  35  37
HETATM   37  C35 UNL     1     -12.196  49.107 -38.661  1.00  0.00     0.171 C 
HETATM   38  O6  UNL     1     -11.235  49.229 -39.400  1.00  0.00    -0.646 OA
BRANCH  37  39
HETATM   39  O7  UNL     1     -13.184  50.019 -38.656  1.00  0.00    -0.773 OA
HETATM   40  H48 UNL     1     -12.896  50.654 -39.340  1.00  0.00     0.167 HD
ENDBRANCH  37  39
ENDBRANCH  35  37
ENDBRANCH  33  34
BRANCH  33  41
HETATM   41  O1  UNL     1     -11.802  44.882 -37.328  1.00  0.00    -0.392 OA
HETATM   42  H6  UNL     1     -11.753  44.098 -36.756  1.00  0.00     0.210 HD
ENDBRANCH  33  41
ENDBRANCH  32  33
ENDBRANCH  30  32
ENDBRANCH   1  30
BRANCH   3  43
HETATM   43  O2  UNL     1      -7.492  47.204 -31.800  1.00  0.00    -0.394 OA
HETATM   44  H17 UNL     1      -7.452  47.560 -30.893  1.00  0.00     0.210 HD
ENDBRANCH   3  43
BRANCH  28  45
HETATM   45  O5  UNL     1     -10.254  48.568 -29.862  1.00  0.00    -0.390 OA
HETATM   46  H46 UNL     1     -10.617  49.252 -29.279  1.00  0.00     0.210 HD
ENDBRANCH  28  45
TORSDOF 9
ENDMDL
