MODEL 1
REMARK minimizedAffinity -8.80696964
REMARK CNNscore 0.797287762
REMARK CNNaffinity 6.97680044
REMARK  16 active torsions:
REMARK  status: ('A' for Active; 'I' for Inactive)
REMARK    1  A    between atoms: S1_2  and  C2_3 
REMARK    2  A    between atoms: C2_3  and  C3_4 
REMARK    3  A    between atoms: C3_4  and  C4_5 
REMARK    4  A    between atoms: C4_5  and  N1_6 
REMARK    5  A    between atoms: C4_5  and  C33_44 
REMARK       I    between atoms: N1_6  and  C5_7 
REMARK    6  A    between atoms: C5_7  and  C6_9 
REMARK    7  A    between atoms: C6_9  and  N2_11 
REMARK       I    between atoms: N2_11  and  C8_12 
REMARK    8  A    between atoms: C8_12  and  C9_14 
REMARK    9  A    between atoms: C9_14  and  C10_15 
REMARK   10  A    between atoms: C10_15  and  C11_16 
REMARK   11  A    between atoms: C11_16  and  O4_18 
REMARK   12  A    between atoms: O4_18  and  C12_19 
REMARK   13  A    between atoms: C12_19  and  C13_20 
REMARK   14  A    between atoms: C13_20  and  C14_22 
REMARK   15  A    between atoms: C14_22  and  O6_23 
REMARK   16  A    between atoms: C33_44  and  O10_46 
ROOT
HETATM    1  C12 UNL     1      -7.298  47.004 -24.395  1.00  0.00     0.260 C 
ENDROOT
BRANCH   1   2
HETATM    2  O4  UNL     1      -8.700  46.994 -24.160  1.00  0.00    -0.314 OA
BRANCH   2   3
HETATM    3  C11 UNL     1      -9.445  47.608 -25.121  1.00  0.00     0.259 C 
HETATM    4  O3  UNL     1      -9.566  48.818 -25.245  1.00  0.00    -0.265 OA
BRANCH   3   5
HETATM    5  C10 UNL     1     -10.132  46.569 -25.977  1.00  0.00     0.120 C 
BRANCH   5   6
HETATM    6  C9  UNL     1     -11.286  45.912 -25.232  1.00  0.00     0.112 C 
BRANCH   6   7
HETATM    7  C8  UNL     1     -12.514  46.804 -25.203  1.00  0.00     0.218 C 
HETATM    8  N2  UNL     1     -13.421  46.434 -24.236  1.00  0.00    -0.348 N 
HETATM    9  H14 UNL     1     -13.380  45.472 -23.914  1.00  0.00     0.163 HD
HETATM   10  O2  UNL     1     -12.678  47.748 -25.966  1.00  0.00    -0.274 OA
BRANCH   8  11
HETATM   11  C6  UNL     1     -14.725  47.079 -24.128  1.00  0.00     0.172 C 
HETATM   12  C7  UNL     1     -15.080  47.291 -22.661  1.00  0.00     0.042 C 
BRANCH  11  13
HETATM   13  C5  UNL     1     -15.791  46.200 -24.817  1.00  0.00     0.240 C 
HETATM   14  N1  UNL     1     -16.847  45.852 -24.001  1.00  0.00    -0.345 N 
HETATM   15  H9  UNL     1     -17.043  46.484 -23.230  1.00  0.00     0.163 HD
HETATM   16  O1  UNL     1     -15.671  45.791 -25.970  1.00  0.00    -0.271 OA
BRANCH  14  17
HETATM   17  C4  UNL     1     -18.000  45.097 -24.508  1.00  0.00     0.183 C 
BRANCH  17  18
HETATM   18  C3  UNL     1     -18.679  44.368 -23.342  1.00  0.00     0.046 C 
BRANCH  18  19
HETATM   19  C2  UNL     1     -19.327  45.327 -22.340  1.00  0.00     0.076 C 
BRANCH  19  20
HETATM   20  S1  UNL     1     -18.585  45.173 -20.680  1.00  0.00    -0.173 SA
HETATM   21  C1  UNL     1     -18.679  46.898 -20.136  1.00  0.00     0.089 C 
ENDBRANCH  19  20
ENDBRANCH  18  19
ENDBRANCH  17  18
BRANCH  17  22
HETATM   22  C33 UNL     1     -18.945  46.104 -25.164  1.00  0.00     0.163 C 
HETATM   23  O9  UNL     1     -19.135  47.255 -24.810  1.00  0.00    -0.648 OA
BRANCH  22  24
HETATM   24  O10 UNL     1     -19.634  45.588 -26.203  1.00  0.00    -0.775 OA
HETATM   25  H46 UNL     1     -20.166  46.337 -26.548  1.00  0.00     0.167 HD
ENDBRANCH  22  24
ENDBRANCH  17  22
ENDBRANCH  14  17
ENDBRANCH  11  13
ENDBRANCH   8  11
ENDBRANCH   6   7
ENDBRANCH   5   6
ENDBRANCH   3   5
ENDBRANCH   2   3
ENDBRANCH   1   2
BRANCH   1  26
HETATM   26  C13 UNL     1      -6.398  47.691 -23.371  1.00  0.00     0.185 C 
HETATM   27  O5  UNL     1      -5.976  47.066 -22.387  1.00  0.00    -0.292 OA
BRANCH  26  28
HETATM   28  C14 UNL     1      -6.005  49.168 -23.561  1.00  0.00     0.128 C 
HETATM   29  C15 UNL     1      -6.045  50.067 -22.305  1.00  0.00     0.047 C 
HETATM   30  C16 UNL     1      -4.984  51.166 -22.518  1.00  0.00     0.009 C 
HETATM   31  C17 UNL     1      -4.392  50.886 -23.899  1.00  0.00     0.002 C 
HETATM   32  C18 UNL     1      -3.031  51.491 -24.278  1.00  0.00     0.003 C 
HETATM   33  C31 UNL     1      -4.532  49.359 -24.078  1.00  0.00     0.005 C 
HETATM   34  C19 UNL     1      -2.051  51.761 -23.116  1.00  0.00     0.010 C 
HETATM   35  C28 UNL     1      -2.291  50.689 -25.378  1.00  0.00     0.072 C 
HETATM   36  C20 UNL     1      -0.607  51.991 -23.596  1.00  0.00     0.035 C 
HETATM   37  C21 UNL     1      -0.573  52.506 -25.015  1.00  0.00    -0.067 C 
HETATM   38  C22 UNL     1      -0.085  53.732 -25.284  1.00  0.00     0.053 C 
HETATM   39  C26 UNL     1      -1.211  51.591 -26.083  1.00  0.00    -0.009 C 
HETATM   40  C23 UNL     1      -0.144  54.310 -26.647  1.00  0.00     0.149 C 
HETATM   41  O7  UNL     1       0.352  55.417 -26.849  1.00  0.00    -0.293 OA
HETATM   42  C24 UNL     1      -0.797  53.507 -27.748  1.00  0.00     0.084 C 
HETATM   43  C25 UNL     1      -1.801  52.493 -27.199  1.00  0.00     0.022 C 
HETATM   44  C27 UNL     1      -0.105  50.682 -26.669  1.00  0.00     0.021 C 
HETATM   45  C29 UNL     1      -3.252  49.888 -26.257  1.00  0.00     0.133 C 
HETATM   46  O8  UNL     1      -3.137  49.838 -27.485  1.00  0.00    -0.297 OA
HETATM   47  C30 UNL     1      -4.296  49.014 -25.564  1.00  0.00     0.091 C 
HETATM   48  C32 UNL     1      -3.551  48.547 -23.184  1.00  0.00     0.019 C 
BRANCH  28  49
HETATM   49  O6  UNL     1      -6.949  49.726 -24.486  1.00  0.00    -0.381 OA
HETATM   50  H21 UNL     1      -7.127  49.061 -25.180  1.00  0.00     0.211 HD
ENDBRANCH  28  49
ENDBRANCH  26  28
ENDBRANCH   1  26
TORSDOF 16
ENDMDL
