MODEL 1
REMARK minimizedAffinity -10.2033167
REMARK  9 active torsions:
REMARK  status: ('A' for Active; 'I' for Inactive)
REMARK    1  A    between atoms: C2_2  and  C17_19 
REMARK    2  A    between atoms: C3_3  and  C4_4 
REMARK    3  A    between atoms: C4_4  and  C5_5 
REMARK    4  A    between atoms: C5_5  and  C6_6 
REMARK    5  A    between atoms: C12_12  and  O1_13 
REMARK    6  A    between atoms: C17_19  and  C18_20 
REMARK    7  A    between atoms: C18_20  and  C19_21 
REMARK    8  A    between atoms: C23_25  and  C24_26 
REMARK    9  A    between atoms: C24_26  and  O3_29 
ROOT
HETATM    1  C1  UNL     1      -5.963   1.266  11.378  1.00  0.00     0.043 C 
HETATM    2  C2  UNL     1      -5.547   2.700  11.573  1.00  0.00    -0.087 C 
HETATM    3  C3  UNL     1      -6.154   3.561  12.417  1.00  0.00    -0.024 C 
ENDROOT
BRANCH   2   4
HETATM    4  C17 UNL     1      -4.402   3.178  10.694  1.00  0.00     0.037 C 
BRANCH   4   5
HETATM    5  C18 UNL     1      -3.021   3.136  11.366  1.00  0.00     0.032 C 
BRANCH   5   6
HETATM    6  C19 UNL     1      -2.331   4.473  11.460  1.00  0.00    -0.013 C 
HETATM    7  C20 UNL     1      -1.008   4.742  11.490  1.00  0.00     0.013 C 
HETATM    8  C21 UNL     1      -0.525   6.159  11.526  1.00  0.00     0.047 C 
HETATM    9  C27 UNL     1       0.021   3.669  11.479  1.00  0.00     0.289 C 
HETATM   10  C22 UNL     1       0.636   6.335  10.568  1.00  0.00     0.040 C 
HETATM   11  C23 UNL     1       1.749   5.384  10.987  1.00  0.00     0.166 C 
HETATM   12  O4  UNL     1       1.257   4.019  11.050  1.00  0.00    -0.309 OA
HETATM   13  O5  UNL     1      -0.215   2.512  11.804  1.00  0.00    -0.260 OA
BRANCH  11  14
HETATM   14  C24 UNL     1       2.973   5.391  10.028  1.00  0.00     0.077 C 
HETATM   15  C25 UNL     1       4.159   6.142  10.651  1.00  0.00     0.048 C 
HETATM   16  C26 UNL     1       2.641   6.007   8.666  1.00  0.00     0.048 C 
BRANCH  14  17
HETATM   17  O3  UNL     1       3.396   4.041   9.794  1.00  0.00    -0.388 OA
HETATM   18  H36 UNL     1       3.605   3.659  10.667  1.00  0.00     0.210 HD
ENDBRANCH  14  17
ENDBRANCH  11  14
ENDBRANCH   5   6
ENDBRANCH   4   5
ENDBRANCH   2   4
BRANCH   3  19
HETATM   19  C4  UNL     1      -7.297   3.285  13.359  1.00  0.00     0.030 C 
BRANCH  19  20
HETATM   20  C5  UNL     1      -7.509   4.466  14.317  1.00  0.00     0.046 C 
BRANCH  20  21
HETATM   21  C6  UNL     1      -7.587   5.848  13.622  1.00  0.00     0.082 C 
HETATM   22  C7  UNL     1      -6.188   6.419  13.348  1.00  0.00     0.051 C 
HETATM   23  C8  UNL     1      -8.292   5.680  12.290  1.00  0.00     0.012 C 
HETATM   24  C9  UNL     1      -9.515   6.159  12.046  1.00  0.00     0.013 C 
HETATM   25  C10 UNL     1     -10.197   6.865  13.120  1.00  0.00     0.000 A 
HETATM   26  C11 UNL     1     -11.521   7.287  12.959  1.00  0.00     0.050 A 
HETATM   27  C16 UNL     1      -9.518   7.139  14.315  1.00  0.00     0.086 A 
HETATM   28  C12 UNL     1     -12.152   7.976  13.992  1.00  0.00     0.067 A 
HETATM   29  C13 UNL     1     -11.482   8.255  15.178  1.00  0.00     0.046 A 
HETATM   30  C14 UNL     1     -10.154   7.844  15.351  1.00  0.00    -0.025 A 
HETATM   31  C15 UNL     1      -9.433   8.147  16.633  1.00  0.00     0.051 C 
HETATM   32  O2  UNL     1      -8.216   6.776  14.528  1.00  0.00    -0.335 OA
BRANCH  28  33
HETATM   33  O1  UNL     1     -13.442   8.404  13.876  1.00  0.00    -0.361 OA
HETATM   34  H15 UNL     1     -13.783   8.141  13.005  1.00  0.00     0.217 HD
ENDBRANCH  28  33
ENDBRANCH  20  21
ENDBRANCH  19  20
ENDBRANCH   3  19
TORSDOF 9
ENDMDL
