MODEL 1
REMARK minimizedAffinity -9.56337261
REMARK  6 active torsions:
REMARK  status: ('A' for Active; 'I' for Inactive)
REMARK    1  A    between atoms: C2_2  and  O2_4 
REMARK    2  A    between atoms: O2_4  and  C3_5 
REMARK    3  A    between atoms: C13_15  and  C14_16 
REMARK    4  A    between atoms: C14_16  and  C16_18 
REMARK    5  A    between atoms: C17_19  and  C18_20 
REMARK    6  A    between atoms: C18_20  and  C20_22 
ROOT
HETATM    1  C3  UNL     1      -1.876  51.087 -27.513  1.00  0.00     0.135 C 
HETATM    2  C4  UNL     1      -0.414  51.081 -27.057  1.00  0.00     0.034 C 
HETATM    3  C5  UNL     1      -0.269  50.819 -25.555  1.00  0.00     0.015 C 
HETATM    4  C6  UNL     1      -1.076  51.818 -24.687  1.00  0.00     0.001 C 
HETATM    5  C7  UNL     1      -0.444  53.227 -24.827  1.00  0.00     0.019 C 
HETATM    6  C8  UNL     1      -1.075  51.342 -23.186  1.00  0.00     0.039 C 
HETATM    7  C9  UNL     1      -0.001  51.902 -22.247  1.00  0.00     0.010 C 
HETATM    8  C10 UNL     1      -0.007  51.186 -20.873  1.00  0.00     0.010 C 
HETATM    9  C11 UNL     1      -1.406  50.709 -20.392  1.00  0.00    -0.033 C 
HETATM   10  C12 UNL     1      -1.591  49.199 -20.672  1.00  0.00     0.016 C 
HETATM   11  C13 UNL     1      -1.719  51.033 -18.893  1.00  0.00     0.001 C 
HETATM   12  C23 UNL     1      -3.275  51.066 -18.854  1.00  0.00     0.006 C 
HETATM   13  C24 UNL     1      -3.759  51.336 -20.287  1.00  0.00     0.009 C 
HETATM   14  C25 UNL     1      -2.478  51.594 -21.069  1.00  0.00     0.036 C 
HETATM   15  C26 UNL     1      -2.514  51.547 -22.606  1.00  0.00     0.123 C 
HETATM   16  C27 UNL     1      -3.379  50.517 -23.295  1.00  0.00     0.014 C 
HETATM   17  C28 UNL     1      -3.360  50.619 -24.635  1.00  0.00     0.014 C 
HETATM   18  C29 UNL     1      -2.583  51.822 -25.151  1.00  0.00     0.124 C 
HETATM   19  C30 UNL     1      -2.741  52.028 -26.666  1.00  0.00     0.079 C 
HETATM   20  O3  UNL     1      -3.238  52.931 -24.487  1.00  0.00    -0.223 OA
HETATM   21  O4  UNL     1      -2.971  52.870 -23.019  1.00  0.00    -0.224 OA
ENDROOT
BRANCH  11  22
HETATM   22  C14 UNL     1      -1.111  50.131 -17.785  1.00  0.00     0.008 C 
HETATM   23  C15 UNL     1      -0.746  48.729 -18.289  1.00  0.00     0.014 C 
BRANCH  22  24
HETATM   24  C16 UNL     1       0.067  50.830 -17.121  1.00  0.00    -0.026 C 
HETATM   25  C17 UNL     1       0.670  50.485 -15.971  1.00  0.00    -0.026 C 
BRANCH  25  26
HETATM   26  C18 UNL     1       1.832  51.245 -15.365  1.00  0.00     0.007 C 
HETATM   27  C19 UNL     1       1.496  51.539 -13.899  1.00  0.00     0.014 C 
BRANCH  26  28
HETATM   28  C20 UNL     1       2.143  52.534 -16.178  1.00  0.00    -0.015 C 
HETATM   29  C21 UNL     1       1.594  52.449 -17.609  1.00  0.00     0.010 C 
HETATM   30  C22 UNL     1       3.646  52.832 -16.245  1.00  0.00     0.010 C 
ENDBRANCH  26  28
ENDBRANCH  25  26
ENDBRANCH  22  24
ENDBRANCH  11  22
BRANCH   1  31
HETATM   31  O2  UNL     1      -2.357  49.731 -27.435  1.00  0.00    -0.316 OA
BRANCH  31  32
HETATM   32  C2  UNL     1      -3.522  49.465 -28.088  1.00  0.00     0.255 C 
HETATM   33  C1  UNL     1      -4.322  48.458 -27.321  1.00  0.00     0.126 C 
HETATM   34  O1  UNL     1      -3.868  49.953 -29.154  1.00  0.00    -0.266 OA
ENDBRANCH  31  32
ENDBRANCH   1  31
TORSDOF 6
ENDMDL
