MODEL 1
REMARK minimizedAffinity -8.25842857
REMARK CNNscore 0.780817091
REMARK CNNaffinity 6.86489868
REMARK  6 active torsions:
REMARK  status: ('A' for Active; 'I' for Inactive)
REMARK    1  A    between atoms: C2_2  and  C30_31 
REMARK    2  A    between atoms: C3_3  and  C4_4 
REMARK    3  A    between atoms: C4_4  and  C5_5 
REMARK    4  A    between atoms: C5_5  and  C6_6 
REMARK    5  A    between atoms: C6_6  and  C8_8 
REMARK    6  A    between atoms: C30_31  and  O3_33 
ROOT
HETATM    1  C8  UNL     1      -1.357  12.116  18.184  1.00  0.00    -0.002 C 
HETATM    2  C9  UNL     1      -2.462  11.393  18.966  1.00  0.00     0.007 C 
HETATM    3  C10 UNL     1      -2.673  10.116  18.180  1.00  0.00     0.015 C 
HETATM    4  C11 UNL     1      -2.705  10.555  16.689  1.00  0.00    -0.013 C 
HETATM    5  C12 UNL     1      -4.193  10.777  16.286  1.00  0.00     0.021 C 
HETATM    6  C13 UNL     1      -2.190   9.394  15.802  1.00  0.00    -0.070 C 
HETATM    7  C14 UNL     1      -2.727   8.157  15.894  1.00  0.00    -0.022 C 
HETATM    8  C15 UNL     1      -2.380   6.991  15.022  1.00  0.00     0.034 C 
HETATM    9  C16 UNL     1      -1.126   7.203  14.153  1.00  0.00     0.013 C 
HETATM   10  C17 UNL     1      -0.820   6.038  13.136  1.00  0.00     0.018 C 
HETATM   11  C18 UNL     1       0.353   5.190  13.674  1.00  0.00     0.023 C 
HETATM   12  C19 UNL     1      -2.017   5.084  12.921  1.00  0.00     0.023 C 
HETATM   13  C20 UNL     1      -0.381   6.537  11.751  1.00  0.00     0.135 C 
HETATM   14  O1  UNL     1      -0.574   5.865  10.733  1.00  0.00    -0.297 OA
HETATM   15  C21 UNL     1       0.394   7.824  11.625  1.00  0.00     0.080 C 
HETATM   16  C22 UNL     1       0.247   8.776  12.796  1.00  0.00     0.017 C 
HETATM   17  C23 UNL     1      -1.093   8.649  13.561  1.00  0.00    -0.031 C 
HETATM   18  C24 UNL     1      -2.284   8.932  12.617  1.00  0.00     0.016 C 
HETATM   19  C25 UNL     1      -1.099   9.660  14.777  1.00  0.00     0.024 C 
HETATM   20  C26 UNL     1      -1.114  11.137  14.368  1.00  0.00     0.010 C 
HETATM   21  C27 UNL     1      -0.756  11.967  15.596  1.00  0.00     0.011 C 
HETATM   22  C28 UNL     1      -1.859  11.931  16.681  1.00  0.00    -0.029 C 
HETATM   23  C29 UNL     1      -2.748  13.182  16.380  1.00  0.00     0.016 C 
ENDROOT
BRANCH   1  24
HETATM   24  C6  UNL     1       0.099  11.624  18.501  1.00  0.00    -0.014 C 
HETATM   25  C7  UNL     1       1.105  12.442  17.667  1.00  0.00     0.010 C 
BRANCH  24  26
HETATM   26  C5  UNL     1       0.486  11.713  19.999  1.00  0.00     0.008 C 
BRANCH  26  27
HETATM   27  C4  UNL     1       1.049  10.410  20.582  1.00  0.00     0.028 C 
BRANCH  27  28
HETATM   28  C3  UNL     1       2.378  10.649  21.248  1.00  0.00    -0.013 C 
HETATM   29  C2  UNL     1       2.992   9.900  22.187  1.00  0.00     0.008 C 
HETATM   30  C1  UNL     1       4.341  10.284  22.728  1.00  0.00     0.055 C 
BRANCH  29  31
HETATM   31  C30 UNL     1       2.356   8.696  22.774  1.00  0.00     0.171 C 
HETATM   32  O2  UNL     1       1.865   7.751  22.186  1.00  0.00    -0.646 OA
BRANCH  31  33
HETATM   33  O3  UNL     1       2.353   8.743  24.117  1.00  0.00    -0.773 OA
HETATM   34  H46 UNL     1       1.913   7.906  24.374  1.00  0.00     0.167 HD
ENDBRANCH  31  33
ENDBRANCH  29  31
ENDBRANCH  27  28
ENDBRANCH  26  27
ENDBRANCH  24  26
ENDBRANCH   1  24
TORSDOF 6
ENDMDL
