MODEL 1
REMARK minimizedAffinity -9.18124866
REMARK CNNscore 0.661523163
REMARK CNNaffinity 7.37660933
REMARK  11 active torsions:
REMARK  status: ('A' for Active; 'I' for Inactive)
REMARK    1  A    between atoms: C2_2  and  C4_4 
REMARK    2  A    between atoms: C5_5  and  C6_6 
REMARK    3  A    between atoms: C6_6  and  C7_7 
REMARK    4  A    between atoms: C7_7  and  C9_9 
REMARK    5  A    between atoms: C27_28  and  O2_29 
REMARK    6  A    between atoms: O2_29  and  C28_30 
REMARK    7  A    between atoms: C29_32  and  C30_33 
REMARK    8  A    between atoms: C30_33  and  O4_34 
REMARK    9  A    between atoms: C31_35  and  O5_36 
REMARK   10  A    between atoms: C32_37  and  O6_38 
REMARK   11  A    between atoms: C33_39  and  O7_40 
ROOT
HETATM    1  C9  UNL     1       0.154  51.734 -21.199  1.00  0.00    -0.002 C 
HETATM    2  C10 UNL     1      -0.070  52.559 -19.889  1.00  0.00     0.006 C 
HETATM    3  C11 UNL     1      -1.327  51.999 -19.191  1.00  0.00     0.011 C 
HETATM    4  C12 UNL     1      -1.606  50.670 -19.917  1.00  0.00    -0.029 C 
HETATM    5  C13 UNL     1      -0.624  49.632 -19.279  1.00  0.00     0.016 C 
HETATM    6  C14 UNL     1      -3.082  50.161 -19.839  1.00  0.00     0.028 C 
HETATM    7  C15 UNL     1      -3.533  49.860 -18.423  1.00  0.00    -0.021 C 
HETATM    8  C16 UNL     1      -4.110  48.691 -18.096  1.00  0.00     0.008 C 
HETATM    9  C17 UNL     1      -4.318  47.588 -19.128  1.00  0.00     0.092 C 
HETATM   10  O1  UNL     1      -5.432  48.057 -19.924  1.00  0.00    -0.374 OA
HETATM   11  C18 UNL     1      -4.912  48.835 -21.017  1.00  0.00     0.179 C 
HETATM   12  C19 UNL     1      -3.378  48.950 -20.835  1.00  0.00    -0.004 C 
HETATM   13  C20 UNL     1      -2.730  49.174 -22.228  1.00  0.00     0.014 C 
HETATM   14  C21 UNL     1      -1.318  49.784 -22.252  1.00  0.00     0.011 C 
HETATM   15  C22 UNL     1      -1.243  51.065 -21.401  1.00  0.00    -0.032 C 
HETATM   16  C23 UNL     1      -2.202  52.128 -22.030  1.00  0.00     0.016 C 
HETATM   17  C24 UNL     1      -3.113  47.598 -20.107  1.00  0.00     0.036 C 
HETATM   18  C25 UNL     1      -3.021  46.318 -20.954  1.00  0.00     0.011 C 
HETATM   19  C26 UNL     1      -4.318  45.538 -21.051  1.00  0.00     0.033 C 
HETATM   20  C27 UNL     1      -4.841  45.096 -19.677  1.00  0.00     0.136 C 
HETATM   21  C34 UNL     1      -4.656  46.174 -18.533  1.00  0.00     0.014 C 
HETATM   22  C35 UNL     1      -5.933  46.228 -17.651  1.00  0.00     0.021 C 
HETATM   23  C36 UNL     1      -3.500  45.698 -17.611  1.00  0.00     0.021 C 
ENDROOT
BRANCH  20  24
HETATM   24  O2  UNL     1      -6.213  44.673 -19.761  1.00  0.00    -0.352 OA
BRANCH  24  25
HETATM   25  C28 UNL     1      -6.421  43.259 -19.687  1.00  0.00     0.292 C 
HETATM   26  O3  UNL     1      -5.223  42.608 -19.267  1.00  0.00    -0.348 OA
HETATM   27  C29 UNL     1      -5.369  41.179 -19.187  1.00  0.00     0.179 C 
HETATM   28  C31 UNL     1      -5.722  40.589 -20.557  1.00  0.00     0.180 C 
HETATM   29  C32 UNL     1      -6.977  41.273 -21.102  1.00  0.00     0.183 C 
HETATM   30  C33 UNL     1      -6.808  42.789 -21.102  1.00  0.00     0.204 C 
BRANCH  27  31
HETATM   31  C30 UNL     1      -4.047  40.614 -18.660  1.00  0.00     0.198 C 
BRANCH  31  32
HETATM   32  O4  UNL     1      -2.961  41.237 -19.351  1.00  0.00    -0.398 OA
HETATM   33  H44 UNL     1      -3.180  41.152 -20.299  1.00  0.00     0.209 HD
ENDBRANCH  31  32
ENDBRANCH  27  31
BRANCH  28  34
HETATM   34  O5  UNL     1      -5.951  39.182 -20.465  1.00  0.00    -0.390 OA
HETATM   35  H46 UNL     1      -6.382  38.931 -21.308  1.00  0.00     0.210 HD
ENDBRANCH  28  34
BRANCH  29  36
HETATM   36  O6  UNL     1      -7.227  40.794 -22.433  1.00  0.00    -0.390 OA
HETATM   37  H48 UNL     1      -7.919  41.389 -22.790  1.00  0.00     0.210 HD
ENDBRANCH  29  36
BRANCH  30  38
HETATM   38  O7  UNL     1      -8.037  43.395 -21.536  1.00  0.00    -0.388 OA
HETATM   39  H50 UNL     1      -7.885  44.359 -21.457  1.00  0.00     0.210 HD
ENDBRANCH  30  38
ENDBRANCH  24  25
ENDBRANCH  20  24
BRANCH   1  40
HETATM   40  C7  UNL     1       0.789  52.600 -22.336  1.00  0.00    -0.010 C 
HETATM   41  C8  UNL     1       1.259  53.962 -21.808  1.00  0.00     0.010 C 
BRANCH  40  42
HETATM   42  C6  UNL     1      -0.236  52.807 -23.488  1.00  0.00     0.031 C 
BRANCH  42  43
HETATM   43  C5  UNL     1       0.229  52.718 -24.924  1.00  0.00    -0.026 C 
HETATM   44  C4  UNL     1       0.857  51.694 -25.529  1.00  0.00     0.002 C 
BRANCH  44  45
HETATM   45  C2  UNL     1       1.266  51.648 -26.927  1.00  0.00    -0.072 C 
HETATM   46  C1  UNL     1       0.332  51.643 -27.892  1.00  0.00     0.018 C 
HETATM   47  C3  UNL     1       2.731  51.624 -27.276  1.00  0.00     0.047 C 
ENDBRANCH  44  45
ENDBRANCH  42  43
ENDBRANCH  40  42
ENDBRANCH   1  40
TORSDOF 11
ENDMDL
