MODEL 1
REMARK minimizedAffinity -9.87747192
REMARK  9 active torsions:
REMARK  status: ('A' for Active; 'I' for Inactive)
REMARK    1  A    between atoms: C2_2  and  C3_3 
REMARK    2  A    between atoms: C2_2  and  C9_12 
REMARK    3  A    between atoms: C3_3  and  C4_4 
REMARK    4  A    between atoms: C4_4  and  C5_5 
REMARK    5  A    between atoms: C5_5  and  O1_6 
REMARK    6  A    between atoms: C5_5  and  C6_7 
REMARK    7  A    between atoms: C6_7  and  O2_9 
REMARK    8  A    between atoms: C6_7  and  C8_10 
REMARK    9  A    between atoms: C8_10  and  O3_11 
ROOT
HETATM    1  C9  UNL     1      -0.720  51.047 -21.856  1.00  0.00    -0.002 C 
HETATM    2  C10 UNL     1      -0.867  50.781 -20.339  1.00  0.00     0.007 C 
HETATM    3  C11 UNL     1      -2.108  49.871 -20.166  1.00  0.00     0.015 C 
HETATM    4  C12 UNL     1      -2.465  49.382 -21.588  1.00  0.00    -0.005 C 
HETATM    5  C13 UNL     1      -1.563  48.142 -21.877  1.00  0.00     0.021 C 
HETATM    6  C14 UNL     1      -3.872  48.915 -21.940  1.00  0.00    -0.000 C 
HETATM    7  C15 UNL     1      -4.358  49.046 -23.204  1.00  0.00    -0.060 C 
HETATM    8  C16 UNL     1      -3.527  49.731 -24.302  1.00  0.00     0.036 C 
HETATM    9  C17 UNL     1      -2.164  50.330 -23.902  1.00  0.00     0.015 C 
HETATM   10  C18 UNL     1      -2.126  50.681 -22.412  1.00  0.00    -0.028 C 
HETATM   11  C19 UNL     1      -3.131  51.848 -22.164  1.00  0.00     0.016 C 
HETATM   12  C20 UNL     1      -5.788  48.587 -23.603  1.00  0.00    -0.014 C 
HETATM   13  C21 UNL     1      -6.685  49.835 -23.442  1.00  0.00     0.020 C 
HETATM   14  C22 UNL     1      -5.846  48.094 -25.073  1.00  0.00     0.021 C 
HETATM   15  C23 UNL     1      -7.194  47.515 -25.467  1.00  0.00     0.080 C 
HETATM   16  C24 UNL     1      -7.574  46.370 -24.564  1.00  0.00     0.135 C 
HETATM   17  O4  UNL     1      -8.017  45.328 -25.050  1.00  0.00    -0.297 OA
HETATM   18  C25 UNL     1      -7.502  46.602 -23.046  1.00  0.00     0.018 C 
HETATM   19  C26 UNL     1      -7.473  45.210 -22.362  1.00  0.00     0.023 C 
HETATM   20  C27 UNL     1      -8.804  47.289 -22.609  1.00  0.00     0.023 C 
HETATM   21  C28 UNL     1      -6.184  47.376 -22.690  1.00  0.00     0.020 C 
HETATM   22  C29 UNL     1      -6.087  47.777 -21.215  1.00  0.00     0.090 C 
HETATM   23  C30 UNL     1      -4.700  48.268 -20.872  1.00  0.00     0.157 C 
HETATM   24  O5  UNL     1      -4.281  48.151 -19.721  1.00  0.00    -0.293 OA
ENDROOT
BRANCH   1  25
HETATM   25  C2  UNL     1      -0.081  52.405 -22.278  1.00  0.00    -0.014 C 
HETATM   26  C1  UNL     1       1.036  52.918 -21.359  1.00  0.00     0.010 C 
BRANCH  25  27
HETATM   27  C3  UNL     1       0.460  52.281 -23.727  1.00  0.00     0.007 C 
BRANCH  27  28
HETATM   28  C4  UNL     1      -0.049  53.298 -24.756  1.00  0.00     0.035 C 
BRANCH  28  29
HETATM   29  C5  UNL     1       0.464  53.232 -26.203  1.00  0.00     0.154 C 
BRANCH  29  30
HETATM   30  O1  UNL     1      -0.482  53.852 -27.085  1.00  0.00    -0.392 OA
HETATM   31  H10 UNL     1      -0.198  53.621 -27.992  1.00  0.00     0.210 HD
ENDBRANCH  29  30
BRANCH  29  32
HETATM   32  C6  UNL     1       0.948  51.882 -26.816  1.00  0.00     0.101 C 
HETATM   33  C7  UNL     1      -0.043  50.724 -26.656  1.00  0.00     0.051 C 
BRANCH  32  34
HETATM   34  O2  UNL     1       1.011  52.106 -28.253  1.00  0.00    -0.385 OA
HETATM   35  H14 UNL     1       1.630  52.842 -28.415  1.00  0.00     0.210 HD
ENDBRANCH  32  34
BRANCH  32  36
HETATM   36  C8  UNL     1       2.358  51.472 -26.345  1.00  0.00     0.204 C 
BRANCH  36  37
HETATM   37  O3  UNL     1       3.311  51.475 -27.394  1.00  0.00    -0.398 OA
HETATM   38  H17 UNL     1       4.184  51.316 -26.996  1.00  0.00     0.209 HD
ENDBRANCH  36  37
ENDBRANCH  32  36
ENDBRANCH  29  32
ENDBRANCH  28  29
ENDBRANCH  27  28
ENDBRANCH  25  27
ENDBRANCH   1  25
TORSDOF 9
ENDMDL
