MODEL 1
REMARK minimizedAffinity -6.99859524
REMARK CNNscore 0.677052736
REMARK CNNaffinity 6.5753994
REMARK  10 active torsions:
REMARK  status: ('A' for Active; 'I' for Inactive)
REMARK    1  A    between atoms: N1_6  and  O1_8 
REMARK    2  A    between atoms: O1_8  and  C6_9 
REMARK    3  A    between atoms: C6_9  and  C7_10 
REMARK       I    between atoms: C7_10  and  N2_12 
REMARK    4  A    between atoms: N2_12  and  C8_13 
REMARK    5  A    between atoms: C8_13  and  C9_14 
REMARK    6  A    between atoms: C20_27  and  O3_28 
REMARK    7  A    between atoms: C27_35  and  O4_36 
REMARK    8  A    between atoms: C27_35  and  C28_37 
REMARK    9  A    between atoms: C28_37  and  C29_39 
REMARK   10  A    between atoms: C29_39  and  O6_40 
ROOT
HETATM    1  C1  UNL     1       2.936  52.620 -11.293  1.00  0.00     0.020 C 
HETATM    2  C2  UNL     1       2.900  53.624 -10.106  1.00  0.00    -0.014 C 
HETATM    3  C3  UNL     1       2.208  52.935  -8.899  1.00  0.00     0.020 C 
HETATM    4  C4  UNL     1       0.747  52.560  -9.127  1.00  0.00     0.060 C 
HETATM    5  C5  UNL     1      -0.067  53.701  -9.692  1.00  0.00     0.032 C 
HETATM    6  N1  UNL     1      -1.358  53.597  -9.583  1.00  0.00    -0.271 N 
ATOM      7  H1  UNL     1      -1.829  52.830  -9.102  1.00  0.00     0.194 HD
HETATM    8  C14 UNL     1       0.669  54.811 -10.357  1.00  0.00     0.030 C 
HETATM    9  C15 UNL     1       2.004  54.788 -10.557  1.00  0.00    -0.069 C 
HETATM   10  C16 UNL     1       2.605  55.968 -11.271  1.00  0.00     0.035 C 
HETATM   11  C17 UNL     1       4.061  56.295 -10.967  1.00  0.00     0.010 C 
HETATM   12  C18 UNL     1       4.693  55.575  -9.778  1.00  0.00    -0.002 C 
HETATM   13  C19 UNL     1       4.410  54.058  -9.819  1.00  0.00     0.031 C 
HETATM   14  C20 UNL     1       5.214  53.388  -8.682  1.00  0.00     0.124 C 
HETATM   15  C21 UNL     1       4.985  54.014  -7.303  1.00  0.00     0.045 C 
HETATM   16  C22 UNL     1       5.261  55.550  -7.246  1.00  0.00     0.001 C 
HETATM   17  C23 UNL     1       6.789  55.759  -7.283  1.00  0.00     0.019 C 
HETATM   18  C24 UNL     1       4.533  56.269  -8.408  1.00  0.00     0.002 C 
HETATM   19  C25 UNL     1       3.113  56.528  -7.886  1.00  0.00     0.009 C 
HETATM   20  C26 UNL     1       3.157  56.411  -6.357  1.00  0.00     0.047 C 
HETATM   21  C27 UNL     1       4.625  56.201  -5.977  1.00  0.00     0.128 C 
ENDROOT
BRANCH   6  22
HETATM   22  O1  UNL     1      -2.031  54.664 -10.201  1.00  0.00    -0.271 OA
BRANCH  22  23
HETATM   23  C6  UNL     1      -3.366  54.261 -10.459  1.00  0.00     0.303 C 
BRANCH  23  24
HETATM   24  C7  UNL     1      -3.415  52.872 -11.091  1.00  0.00     0.244 C 
HETATM   25  O2  UNL     1      -3.699  51.848 -10.476  1.00  0.00    -0.271 OA
HETATM   26  N2  UNL     1      -3.107  52.876 -12.438  1.00  0.00    -0.355 N 
HETATM   27  H10 UNL     1      -2.755  53.723 -12.860  1.00  0.00     0.162 HD
BRANCH  26  28
HETATM   28  C8  UNL     1      -3.063  51.666 -13.225  1.00  0.00     0.161 C 
BRANCH  28  29
HETATM   29  C9  UNL     1      -1.723  51.520 -13.895  1.00  0.00    -0.038 A 
HETATM   30  C10 UNL     1      -0.610  52.218 -13.416  1.00  0.00     0.025 A 
HETATM   31  C11 UNL     1       0.600  52.074 -14.076  1.00  0.00     0.088 A 
HETATM   32  N3  UNL     1       0.772  51.299 -15.168  1.00  0.00    -0.375 N 
HETATM   33  C12 UNL     1      -0.315  50.640 -15.620  1.00  0.00     0.088 A 
ATOM     34  H3  UNL     1       1.678  51.215 -15.628  1.00  0.00     0.164 HD
HETATM   35  C13 UNL     1      -1.568  50.719 -15.029  1.00  0.00     0.025 A 
ENDBRANCH  28  29
ENDBRANCH  26  28
ENDBRANCH  23  24
ENDBRANCH  22  23
ENDBRANCH   6  22
BRANCH  14  36
HETATM   36  O3  UNL     1       5.004  51.986  -8.619  1.00  0.00    -0.395 OA
HETATM   37  H25 UNL     1       5.343  51.601  -9.445  1.00  0.00     0.210 HD
ENDBRANCH  14  36
BRANCH  21  38
HETATM   38  O4  UNL     1       4.672  55.268  -4.884  1.00  0.00    -0.381 OA
HETATM   39  H36 UNL     1       5.181  55.691  -4.159  1.00  0.00     0.211 HD
ENDBRANCH  21  38
BRANCH  21  40
HETATM   40  C28 UNL     1       5.263  57.513  -5.443  1.00  0.00     0.184 C 
HETATM   41  O5  UNL     1       6.272  57.983  -5.995  1.00  0.00    -0.292 OA
BRANCH  40  42
HETATM   42  C29 UNL     1       4.682  58.212  -4.218  1.00  0.00     0.245 C 
BRANCH  42  43
HETATM   43  O6  UNL     1       5.592  58.158  -3.119  1.00  0.00    -0.393 OA
HETATM   44  H39 UNL     1       6.371  57.647  -3.430  1.00  0.00     0.209 HD
ENDBRANCH  42  43
ENDBRANCH  40  42
ENDBRANCH  21  40
TORSDOF 10
ENDMDL
