MODEL 1
REMARK minimizedAffinity -8.54699802
REMARK  7 active torsions:
REMARK  status: ('A' for Active; 'I' for Inactive)
REMARK    1  A    between atoms: C3_3  and  C5_5 
REMARK    2  A    between atoms: C6_6  and  C7_7 
REMARK    3  A    between atoms: C8_8  and  C9_9 
REMARK    4  A    between atoms: C10_10  and  C12_12 
REMARK    5  A    between atoms: C12_12  and  C13_14 
REMARK    6  A    between atoms: C13_14  and  C15_16 
REMARK    7  A    between atoms: C15_16  and  O2_17 
ROOT
HETATM    1  C5  UNL     1      -3.305   3.225  12.127  1.00  0.00     0.058 C 
HETATM    2  C6  UNL     1      -2.465   4.524  12.435  1.00  0.00     0.024 C 
HETATM    3  C16 UNL     1      -3.320   5.629  13.180  1.00  0.00     0.003 C 
HETATM    4  C17 UNL     1      -2.605   6.059  14.478  1.00  0.00     0.041 C 
HETATM    5  C18 UNL     1      -3.409   7.014  15.302  1.00  0.00     0.157 A 
HETATM    6  O3  UNL     1      -4.361   6.353  16.161  1.00  0.00    -0.370 OA
HETATM    7  C19 UNL     1      -4.901   7.168  15.117  1.00  0.00     0.084 A 
HETATM    8  C20 UNL     1      -5.576   8.407  15.612  1.00  0.00     0.049 C 
HETATM    9  C21 UNL     1      -5.591   6.412  14.020  1.00  0.00     0.048 C 
HETATM   10  C22 UNL     1      -4.782   5.216  13.487  1.00  0.00     0.025 C 
HETATM   11  C23 UNL     1      -5.416   4.670  12.237  1.00  0.00     0.162 A 
HETATM   12  O4  UNL     1      -5.792   3.292  12.276  1.00  0.00    -0.368 OA
HETATM   13  C24 UNL     1      -4.633   3.622  11.483  1.00  0.00     0.092 A 
HETATM   14  C25 UNL     1      -4.854   3.541  10.007  1.00  0.00     0.049 C 
ENDROOT
BRANCH   2  15
HETATM   15  C7  UNL     1      -1.690   5.226  11.323  1.00  0.00    -0.021 C 
HETATM   16  C8  UNL     1      -0.390   5.548  11.281  1.00  0.00    -0.003 C 
BRANCH  16  17
HETATM   17  C9  UNL     1       0.209   6.250  10.166  1.00  0.00     0.010 C 
HETATM   18  C10 UNL     1       0.892   7.406  10.246  1.00  0.00    -0.016 C 
HETATM   19  C11 UNL     1       1.273   8.163  11.478  1.00  0.00     0.052 C 
BRANCH  18  20
HETATM   20  C12 UNL     1       1.385   7.938   8.939  1.00  0.00     0.161 C 
HETATM   21  O1  UNL     1       0.831   8.923   8.444  1.00  0.00    -0.292 OA
BRANCH  20  22
HETATM   22  C13 UNL     1       2.534   7.243   8.212  1.00  0.00     0.080 C 
HETATM   23  C14 UNL     1       2.095   6.819   6.814  1.00  0.00     0.020 C 
BRANCH  22  24
HETATM   24  C15 UNL     1       3.139   6.075   8.987  1.00  0.00     0.176 C 
BRANCH  24  25
HETATM   25  O2  UNL     1       3.294   4.937   8.144  1.00  0.00    -0.400 OA
HETATM   26  H22 UNL     1       2.405   4.628   7.897  1.00  0.00     0.209 HD
ENDBRANCH  24  25
ENDBRANCH  22  24
ENDBRANCH  20  22
ENDBRANCH  18  20
ENDBRANCH  16  17
ENDBRANCH   2  15
BRANCH   1  27
HETATM   27  C3  UNL     1      -2.614   1.962  11.578  1.00  0.00    -0.080 C 
HETATM   28  C2  UNL     1      -1.361   1.937  11.076  1.00  0.00    -0.028 C 
HETATM   29  C1  UNL     1      -0.620   0.759  10.521  1.00  0.00     0.036 C 
HETATM   30  C4  UNL     1      -3.417   0.690  11.765  1.00  0.00     0.043 C 
ENDBRANCH   1  27
TORSDOF 7
ENDMDL
