MODEL 1
REMARK minimizedAffinity -10.2345419
REMARK  6 active torsions:
REMARK  status: ('A' for Active; 'I' for Inactive)
REMARK    1  A    between atoms: C2_2  and  C3_3 
REMARK    2  A    between atoms: C2_2  and  C27_30 
REMARK    3  A    between atoms: C3_3  and  C4_4 
REMARK    4  A    between atoms: C4_4  and  C5_5 
REMARK    5  A    between atoms: C5_5  and  C7_7 
REMARK    6  A    between atoms: C26_28  and  O3_29 
ROOT
HETATM    1  C7  UNL     1      -0.985  51.451 -25.135  1.00  0.00    -0.002 C 
HETATM    2  C8  UNL     1      -0.197  52.783 -25.233  1.00  0.00     0.006 C 
HETATM    3  C9  UNL     1       0.255  53.149 -23.814  1.00  0.00     0.010 C 
HETATM    4  C10 UNL     1      -0.085  51.916 -22.981  1.00  0.00     0.027 C 
HETATM    5  C11 UNL     1      -0.148  51.995 -21.474  1.00  0.00    -0.036 C 
HETATM    6  C12 UNL     1      -0.858  51.087 -20.759  1.00  0.00     0.002 C 
HETATM    7  C13 UNL     1      -1.670  50.051 -21.515  1.00  0.00     0.157 C 
HETATM    8  O1  UNL     1      -2.345  49.217 -20.911  1.00  0.00    -0.293 OA
HETATM    9  C14 UNL     1      -1.640  50.021 -23.036  1.00  0.00     0.093 C 
HETATM   10  C15 UNL     1      -1.397  51.409 -23.630  1.00  0.00    -0.026 C 
HETATM   11  C16 UNL     1      -2.618  52.326 -23.358  1.00  0.00     0.016 C 
HETATM   12  C17 UNL     1      -0.883  51.057 -19.216  1.00  0.00    -0.008 C 
HETATM   13  C18 UNL     1      -2.260  51.632 -18.789  1.00  0.00     0.021 C 
HETATM   14  C19 UNL     1      -0.734  49.608 -18.645  1.00  0.00     0.022 C 
HETATM   15  C20 UNL     1      -0.014  49.490 -17.301  1.00  0.00     0.080 C 
HETATM   16  C21 UNL     1      -0.181  50.726 -16.457  1.00  0.00     0.131 C 
HETATM   17  O2  UNL     1      -0.559  50.661 -15.288  1.00  0.00    -0.298 OA
HETATM   18  C22 UNL     1       0.219  52.049 -17.091  1.00  0.00     0.056 C 
HETATM   19  C23 UNL     1       1.538  52.503 -16.466  1.00  0.00     0.018 C 
HETATM   20  C24 UNL     1       0.305  51.901 -18.629  1.00  0.00     0.012 C 
HETATM   21  C25 UNL     1       0.417  53.261 -19.330  1.00  0.00     0.042 C 
HETATM   22  C26 UNL     1       0.675  53.077 -20.825  1.00  0.00     0.148 C 
ENDROOT
BRANCH   1  23
HETATM   23  C5  UNL     1      -2.076  51.310 -26.241  1.00  0.00    -0.014 C 
HETATM   24  C6  UNL     1      -3.460  51.722 -25.718  1.00  0.00     0.010 C 
BRANCH  23  25
HETATM   25  C4  UNL     1      -2.184  49.850 -26.773  1.00  0.00     0.009 C 
BRANCH  25  26
HETATM   26  C3  UNL     1      -2.886  48.830 -25.862  1.00  0.00     0.034 C 
BRANCH  26  27
HETATM   27  C2  UNL     1      -4.348  48.545 -26.159  1.00  0.00    -0.086 C 
HETATM   28  C1  UNL     1      -4.724  48.199 -27.404  1.00  0.00     0.014 C 
BRANCH  27  29
HETATM   29  C27 UNL     1      -5.384  48.558 -25.038  1.00  0.00     0.005 C 
HETATM   30  C28 UNL     1      -6.594  47.661 -25.309  1.00  0.00     0.014 C 
HETATM   31  C29 UNL     1      -4.775  48.248 -23.669  1.00  0.00     0.014 C 
ENDBRANCH  27  29
ENDBRANCH  26  27
ENDBRANCH  25  26
ENDBRANCH  23  25
ENDBRANCH   1  23
BRANCH  22  32
HETATM   32  O3  UNL     1       2.040  52.726 -21.030  1.00  0.00    -0.391 OA
HETATM   33  H37 UNL     1       2.580  53.483 -20.747  1.00  0.00     0.210 HD
ENDBRANCH  22  32
TORSDOF 6
ENDMDL
