MODEL 1
REMARK minimizedAffinity -9.26286602
REMARK  3 active torsions:
REMARK  status: ('A' for Active; 'I' for Inactive)
REMARK    1  A    between atoms: N2_7  and  C6_8 
REMARK    2  A    between atoms: C9_11  and  C10_12 
REMARK    3  A    between atoms: C13_15  and  N3_16 
ROOT
HETATM    1  C6  UNL     1      -0.961  51.054 -22.627  1.00  0.00     0.030 A 
HETATM    2  C7  UNL     1      -0.892  51.440 -23.975  1.00  0.00     0.030 A 
HETATM    3  C8  UNL     1      -1.694  50.850 -24.966  1.00  0.00     0.014 A 
HETATM    4  C9  UNL     1      -2.600  49.832 -24.655  1.00  0.00    -0.026 A 
HETATM    5  C20 UNL     1      -2.668  49.426 -23.319  1.00  0.00     0.014 A 
HETATM    6  C21 UNL     1      -1.862  50.021 -22.334  1.00  0.00     0.030 A 
ENDROOT
BRANCH   4   7
HETATM    7  C10 UNL     1      -3.442  49.212 -25.689  1.00  0.00    -0.026 A 
HETATM    8  C11 UNL     1      -4.684  48.648 -25.375  1.00  0.00     0.014 A 
HETATM    9  C12 UNL     1      -5.492  48.055 -26.360  1.00  0.00     0.032 A 
HETATM   10  C13 UNL     1      -5.091  47.999 -27.701  1.00  0.00     0.060 A 
HETATM   11  C18 UNL     1      -3.841  48.570 -28.009  1.00  0.00     0.032 A 
HETATM   12  C19 UNL     1      -3.034  49.163 -27.026  1.00  0.00     0.014 A 
BRANCH  10  13
HETATM   13  N3  UNL     1      -5.890  47.399 -28.741  1.00  0.00    -0.221 N 
HETATM   14  N4  UNL     1      -6.873  46.541 -28.259  1.00  0.00    -0.302 N 
HETATM   15  C14 UNL     1      -7.640  45.952 -29.110  1.00  0.00     0.108 A 
ATOM     16  H4  UNL     1      -6.984  46.383 -27.257  1.00  0.00     0.186 HD
HETATM   17  C15 UNL     1      -7.579  46.097 -30.563  1.00  0.00     0.024 A 
HETATM   18  C16 UNL     1      -6.639  46.919 -31.023  1.00  0.00     0.077 A 
HETATM   19  C17 UNL     1      -5.713  47.640 -30.113  1.00  0.00     0.266 A 
HETATM   20  O1  UNL     1      -4.892  48.374 -30.656  1.00  0.00    -0.266 OA
ENDBRANCH  10  13
ENDBRANCH   4   7
BRANCH   1  21
HETATM   21  N2  UNL     1      -0.153  51.627 -21.659  1.00  0.00    -0.374 N 
HETATM   22  C5  UNL     1       0.873  52.611 -22.005  1.00  0.00     0.124 C 
HETATM   23  C4  UNL     1       1.467  53.003 -20.659  1.00  0.00     0.028 C 
HETATM   24  C3  UNL     1       0.265  52.971 -19.720  1.00  0.00     0.040 C 
HETATM   25  C2  UNL     1       0.610  52.561 -18.288  1.00  0.00     0.278 C 
HETATM   26  C22 UNL     1      -0.613  51.839 -20.278  1.00  0.00     0.118 C 
HETATM   27  N1  UNL     1      -0.187  51.356 -18.035  1.00  0.00     0.086 N 
HETATM   28  C1  UNL     1       0.401  50.499 -17.015  1.00  0.00     0.310 C 
HETATM   29  C23 UNL     1      -0.307  50.678 -19.333  1.00  0.00     0.297 C 
ENDBRANCH   1  21
TORSDOF 3
ENDMDL
