MODEL 1
REMARK minimizedAffinity -10.4266739
REMARK  6 active torsions:
REMARK  status: ('A' for Active; 'I' for Inactive)
REMARK    1  A    between atoms: N1_2  and  C2_3 
REMARK    2  A    between atoms: C4_5  and  N3_29 
REMARK    3  A    between atoms: C5_7  and  N2_12 
REMARK    4  A    between atoms: C7_9  and  O2_10 
REMARK    5  A    between atoms: C27_32  and  O3_33 
REMARK    6  A    between atoms: C28_36  and  O4_37 
ROOT
HETATM    1  C2  UNL     1       9.960  -8.112  26.325  1.00  0.00     0.257 C 
HETATM    2  C3  UNL     1       9.005  -8.047  27.524  1.00  0.00     0.092 C 
HETATM    3  C4  UNL     1       9.757  -7.985  28.861  1.00  0.00     0.234 C 
HETATM    4  O1  UNL     1      11.164  -8.193  28.758  1.00  0.00    -0.333 OA
HETATM    5  C5  UNL     1      11.891  -7.399  27.786  1.00  0.00     0.168 C 
HETATM    6  C6  UNL     1      12.990  -8.411  27.387  1.00  0.00     0.074 C 
HETATM    7  C7  UNL     1      11.044  -7.023  26.521  1.00  0.00     0.209 C 
ENDROOT
BRANCH   1   8
HETATM    8  N1  UNL     1       9.236  -7.939  25.047  1.00  0.00     0.086 N 
HETATM    9  C1  UNL     1       7.788  -8.031  25.187  1.00  0.00     0.307 C 
HETATM   10  H4  UNL     1       9.550  -8.632  24.370  1.00  0.00     0.316 HD
ENDBRANCH   1   8
BRANCH   7  11
HETATM   11  O2  UNL     1      10.352  -5.770  26.691  1.00  0.00    -0.384 OA
HETATM   12  C8  UNL     1      11.190  -4.717  27.140  1.00  0.00     0.202 C 
ENDBRANCH   7  11
BRANCH   3  13
HETATM   13  N3  UNL     1       9.461  -6.838  29.712  1.00  0.00    -0.316 N 
HETATM   14  C24 UNL     1      10.406  -6.147  30.458  1.00  0.00     0.048 A 
HETATM   15  C19 UNL     1       9.766  -5.024  31.009  1.00  0.00     0.004 A 
HETATM   16  C23 UNL     1      11.769  -6.416  30.683  1.00  0.00     0.030 A 
HETATM   17  C18 UNL     1       8.401  -5.053  30.583  1.00  0.00     0.021 A 
HETATM   18  C20 UNL     1      10.537  -4.155  31.812  1.00  0.00     0.014 A 
HETATM   19  C17 UNL     1       7.222  -4.304  30.711  1.00  0.00     0.040 A 
HETATM   20  C25 UNL     1       8.266  -6.195  29.809  1.00  0.00     0.077 A 
HETATM   21  C16 UNL     1       5.961  -4.643  30.160  1.00  0.00     0.019 A 
HETATM   22  C27 UNL     1       6.951  -3.057  31.387  1.00  0.00     0.150 A 
HETATM   23  C15 UNL     1       5.775  -5.807  29.394  1.00  0.00     0.017 A 
HETATM   24  C28 UNL     1       4.993  -3.558  30.551  1.00  0.00     0.256 A 
HETATM   25  C14 UNL     1       4.695  -6.473  28.753  1.00  0.00     0.004 A 
HETATM   26  C26 UNL     1       6.891  -6.589  29.184  1.00  0.00     0.077 A 
HETATM   27  C9  UNL     1       5.192  -7.670  28.200  1.00  0.00     0.049 A 
HETATM   28  C13 UNL     1       3.318  -6.180  28.640  1.00  0.00     0.014 A 
HETATM   29  N2  UNL     1       6.568  -7.688  28.429  1.00  0.00    -0.308 N 
HETATM   30  C10 UNL     1       4.312  -8.581  27.583  1.00  0.00     0.030 A 
HETATM   31  C11 UNL     1       2.953  -8.263  27.485  1.00  0.00     0.002 A 
HETATM   32  C12 UNL     1       2.460  -7.074  28.000  1.00  0.00     0.001 A 
HETATM   33  N4  UNL     1       5.753  -2.568  31.353  1.00  0.00    -0.340 N 
ATOM     34  H4  UNL     1       5.412  -1.705  31.778  1.00  0.00     0.164 HD
HETATM   35  C21 UNL     1      11.893  -4.417  32.041  1.00  0.00     0.001 A 
HETATM   36  C22 UNL     1      12.498  -5.534  31.483  1.00  0.00     0.002 A 
BRANCH  24  37
HETATM   37  O4  UNL     1       3.909  -4.103  31.270  1.00  0.00    -0.372 OA
HETATM   38  H26 UNL     1       3.782  -3.455  31.984  1.00  0.00     0.212 HD
ENDBRANCH  24  37
BRANCH  22  39
HETATM   39  O3  UNL     1       7.914  -2.407  32.029  1.00  0.00    -0.346 OA
HETATM   40  H24 UNL     1       7.524  -1.602  32.405  1.00  0.00     0.219 HD
ENDBRANCH  22  39
ENDBRANCH   3  13
TORSDOF 6
ENDMDL
