MODEL 1
REMARK minimizedAffinity -7.45189905
REMARK CNNscore 0.454024613
REMARK CNNaffinity 6.64991331
REMARK  4 active torsions:
REMARK  status: ('A' for Active; 'I' for Inactive)
REMARK    1  A    between atoms: C4_4  and  C5_5 
REMARK    2  A    between atoms: C5_5  and  C6_6 
REMARK    3  A    between atoms: C6_6  and  C7_7 
REMARK    4  A    between atoms: C7_7  and  C9_9 
ROOT
HETATM    1  C9  UNL     1      -1.270   7.057  12.385  1.00  0.00    -0.002 C 
HETATM    2  C10 UNL     1      -2.344   6.172  13.098  1.00  0.00     0.006 C 
HETATM    3  C11 UNL     1      -2.539   6.720  14.526  1.00  0.00     0.011 C 
HETATM    4  C12 UNL     1      -1.858   8.095  14.505  1.00  0.00    -0.032 C 
HETATM    5  C13 UNL     1      -2.886   9.076  13.859  1.00  0.00     0.016 C 
HETATM    6  C14 UNL     1      -1.385   8.654  15.879  1.00  0.00     0.004 C 
HETATM    7  C15 UNL     1      -2.454   8.761  16.972  1.00  0.00     0.007 C 
HETATM    8  C16 UNL     1      -3.287  10.035  17.053  1.00  0.00     0.007 C 
HETATM    9  C17 UNL     1      -2.741  11.323  16.405  1.00  0.00     0.010 C 
HETATM   10  C18 UNL     1      -3.041  12.630  17.221  1.00  0.00     0.018 C 
HETATM   11  C19 UNL     1      -4.559  12.853  17.333  1.00  0.00     0.023 C 
HETATM   12  C20 UNL     1      -2.420  12.632  18.631  1.00  0.00     0.023 C 
HETATM   13  C21 UNL     1      -2.460  13.842  16.473  1.00  0.00     0.135 C 
HETATM   14  O1  UNL     1      -2.451  14.973  16.965  1.00  0.00    -0.297 OA
HETATM   15  C22 UNL     1      -1.949  13.610  15.074  1.00  0.00     0.080 C 
HETATM   16  C23 UNL     1      -0.908  12.501  15.076  1.00  0.00     0.018 C 
HETATM   17  C24 UNL     1      -1.283  11.299  15.944  1.00  0.00    -0.026 A 
HETATM   18  C25 UNL     1      -0.222  10.770  16.885  1.00  0.00     0.021 A 
HETATM   19  C26 UNL     1      -0.592   9.952  15.667  1.00  0.00    -0.027 A 
HETATM   20  C27 UNL     1       0.529   9.829  14.625  1.00  0.00     0.011 C 
HETATM   21  C28 UNL     1       0.107   9.131  13.318  1.00  0.00     0.011 C 
HETATM   22  C29 UNL     1      -0.597   7.788  13.591  1.00  0.00    -0.032 C 
HETATM   23  C30 UNL     1       0.441   6.812  14.232  1.00  0.00     0.016 C 
ENDROOT
BRANCH   1  24
HETATM   24  C7  UNL     1      -0.415   6.223  11.378  1.00  0.00    -0.014 C 
HETATM   25  C8  UNL     1       0.112   4.926  12.001  1.00  0.00     0.010 C 
BRANCH  24  26
HETATM   26  C6  UNL     1       0.771   7.087  10.857  1.00  0.00     0.008 C 
BRANCH  26  27
HETATM   27  C5  UNL     1       0.427   8.205   9.863  1.00  0.00     0.028 C 
BRANCH  27  28
HETATM   28  C4  UNL     1       0.601   7.813   8.421  1.00  0.00    -0.025 C 
HETATM   29  C2  UNL     1       1.748   7.808   7.714  1.00  0.00    -0.091 C 
HETATM   30  C1  UNL     1       3.078   8.275   8.238  1.00  0.00     0.042 C 
HETATM   31  C3  UNL     1       1.774   7.326   6.288  1.00  0.00     0.042 C 
ENDBRANCH  27  28
ENDBRANCH  26  27
ENDBRANCH  24  26
ENDBRANCH   1  24
TORSDOF 4
ENDMDL
