MODEL 1
REMARK minimizedAffinity -9.74105167
REMARK CNNscore 0.572022557
REMARK CNNaffinity 7.34620476
REMARK  4 active torsions:
REMARK  status: ('A' for Active; 'I' for Inactive)
REMARK    1  A    between atoms: C2_2  and  C3_3 
REMARK    2  A    between atoms: C6_6  and  O1_7 
REMARK    3  A    between atoms: C7_8  and  C8_9 
REMARK    4  A    between atoms: C26_32  and  O6_33 
ROOT
HETATM    1  C3  UNL     1      -3.375  49.876 -27.111  1.00  0.00     0.008 C 
HETATM    2  C4  UNL     1      -3.148  48.698 -26.189  1.00  0.00    -0.023 C 
HETATM    3  C5  UNL     1      -3.752  48.389 -25.026  1.00  0.00     0.004 C 
HETATM    4  C6  UNL     1      -4.847  49.074 -24.232  1.00  0.00     0.174 C 
HETATM    5  C7  UNL     1      -4.713  48.887 -22.684  1.00  0.00     0.187 C 
HETATM    6  O2  UNL     1      -3.521  49.506 -22.143  1.00  0.00    -0.308 OA
HETATM    7  C12 UNL     1      -2.546  48.632 -21.753  1.00  0.00     0.276 C 
HETATM    8  O3  UNL     1      -2.528  47.442 -22.059  1.00  0.00    -0.264 OA
HETATM    9  C13 UNL     1      -1.583  49.262 -20.694  1.00  0.00     0.095 C 
HETATM   10  C14 UNL     1      -0.405  48.282 -20.481  1.00  0.00     0.036 C 
HETATM   11  C15 UNL     1      -2.425  49.245 -19.429  1.00  0.00     0.003 C 
HETATM   12  C16 UNL     1      -2.296  49.947 -18.300  1.00  0.00     0.072 C 
HETATM   13  C17 UNL     1      -1.272  50.937 -17.947  1.00  0.00     0.245 C 
HETATM   14  O4  UNL     1      -1.109  51.213 -16.760  1.00  0.00    -0.268 OA
HETATM   15  N1  UNL     1      -0.576  51.602 -18.894  1.00  0.00    -0.320 N 
HETATM   16  C18 UNL     1      -0.537  51.579 -20.268  1.00  0.00     0.098 C 
HETATM   17  C19 UNL     1      -1.005  50.620 -21.089  1.00  0.00     0.045 C 
HETATM   18  C20 UNL     1      -0.745  50.793 -22.552  1.00  0.00     0.194 C 
HETATM   19  O5  UNL     1      -0.699  49.828 -23.305  1.00  0.00    -0.287 OA
HETATM   20  C21 UNL     1      -0.423  52.126 -23.084  1.00  0.00     0.046 A 
HETATM   21  C22 UNL     1       0.168  53.047 -22.241  1.00  0.00     0.032 A 
HETATM   22  C23 UNL     1       0.670  54.256 -22.746  1.00  0.00     0.026 A 
HETATM   23  C24 UNL     1       0.558  54.568 -24.111  1.00  0.00    -0.027 A 
HETATM   24  C25 UNL     1       1.109  55.874 -24.610  1.00  0.00     0.051 C 
HETATM   25  C26 UNL     1      -0.117  53.666 -24.945  1.00  0.00     0.086 A 
HETATM   26  C27 UNL     1      -0.603  52.456 -24.431  1.00  0.00     0.059 A 
HETATM   27  C28 UNL     1      -1.553  51.662 -25.223  1.00  0.00     0.163 C 
HETATM   28  O7  UNL     1      -2.718  51.701 -24.835  1.00  0.00    -0.292 OA
HETATM   29  C29 UNL     1      -1.032  50.824 -26.369  1.00  0.00     0.084 C 
HETATM   30  C30 UNL     1      -2.051  50.589 -27.490  1.00  0.00     0.016 C 
HETATM   31  C31 UNL     1       0.225  52.764 -20.805  1.00  0.00     0.210 C 
HETATM   32  O8  UNL     1       0.845  53.503 -20.046  1.00  0.00    -0.285 OA
HETATM   33  H24 UNL     1      -0.019  52.350 -18.475  1.00  0.00     0.169 HD
ENDROOT
BRANCH   5  34
HETATM   34  C8  UNL     1      -5.861  49.536 -21.938  1.00  0.00     0.010 C 
HETATM   35  C9  UNL     1      -6.389  49.209 -20.742  1.00  0.00    -0.089 C 
HETATM   36  C10 UNL     1      -5.928  48.084 -19.854  1.00  0.00     0.042 C 
HETATM   37  C11 UNL     1      -7.550  49.994 -20.185  1.00  0.00     0.042 C 
ENDBRANCH   5  34
BRANCH   4  38
HETATM   38  O1  UNL     1      -4.985  50.450 -24.561  1.00  0.00    -0.389 OA
HETATM   39  H10 UNL     1      -4.088  50.848 -24.511  1.00  0.00     0.210 HD
ENDBRANCH   4  38
BRANCH   1  40
HETATM   40  C2  UNL     1      -4.129  49.379 -28.365  1.00  0.00     0.004 C 
HETATM   41  C1  UNL     1      -4.833  48.044 -28.160  1.00  0.00     0.006 C 
ENDBRANCH   1  40
BRANCH  25  42
HETATM   42  O6  UNL     1      -0.346  53.946 -26.265  1.00  0.00    -0.359 OA
HETATM   43  H29 UNL     1      -0.096  54.861 -26.470  1.00  0.00     0.217 HD
ENDBRANCH  25  42
TORSDOF 4
ENDMDL
