MODEL 1
REMARK minimizedAffinity -6.99987698
REMARK CNNscore 0.80417347
REMARK CNNaffinity 7.07207346
REMARK  13 active torsions:
REMARK  status: ('A' for Active; 'I' for Inactive)
REMARK    1  A    between atoms: C4_4  and  C5_5 
REMARK    2  A    between atoms: C5_5  and  C6_6 
REMARK    3  A    between atoms: C6_6  and  C7_7 
REMARK    4  A    between atoms: C9_9  and  C10_10 
REMARK    5  A    between atoms: C11_11  and  C12_12 
REMARK    6  A    between atoms: C14_14  and  C15_15 
REMARK    7  A    between atoms: C18_18  and  O1_19 
REMARK    8  A    between atoms: C19_21  and  C20_22 
REMARK    9  A    between atoms: C20_22  and  C21_23 
REMARK   10  A    between atoms: C21_23  and  C22_24 
REMARK   11  A    between atoms: C22_24  and  O3_25 
REMARK   12  A    between atoms: C24_27  and  C26_29 
REMARK   13  A    between atoms: C29_33  and  O5_35 
ROOT
HETATM    1  C15 UNL     1       2.094  50.907 -12.985  1.00  0.00     0.149 C 
HETATM    2  C16 UNL     1       2.246  52.267 -12.287  1.00  0.00     0.054 C 
HETATM    3  C17 UNL     1       1.562  52.121 -10.897  1.00  0.00     0.050 C 
HETATM    4  C18 UNL     1       1.543  50.590 -10.781  1.00  0.00     0.270 C 
HETATM    5  O2  UNL     1       1.310  50.105 -12.100  1.00  0.00    -0.351 OA
HETATM    6  C19 UNL     1       2.449  52.839  -9.800  1.00  0.00     0.032 C 
HETATM    7  C23 UNL     1       2.417  54.361 -10.049  1.00  0.00    -0.066 C 
HETATM    8  C24 UNL     1       3.499  55.149 -10.278  1.00  0.00    -0.021 C 
HETATM    9  C25 UNL     1       3.403  56.618 -10.599  1.00  0.00     0.052 C 
HETATM   10  C27 UNL     1       1.007  54.921 -10.004  1.00  0.00     0.038 C 
HETATM   11  C28 UNL     1       0.103  54.252 -11.032  1.00  0.00     0.042 C 
HETATM   12  C29 UNL     1       0.091  52.710 -10.928  1.00  0.00     0.067 C 
HETATM   13  C30 UNL     1      -0.832  52.175 -12.036  1.00  0.00     0.047 C 
ENDROOT
BRANCH   4  14
HETATM   14  O1  UNL     1       2.801  50.057 -10.398  1.00  0.00    -0.370 OA
HETATM   15  H26 UNL     1       2.643  49.099 -10.338  1.00  0.00     0.212 HD
ENDBRANCH   4  14
BRANCH   6  16
HETATM   16  C20 UNL     1       2.140  52.598  -8.295  1.00  0.00     0.012 C 
BRANCH  16  17
HETATM   17  C21 UNL     1       2.746  53.565  -7.270  1.00  0.00     0.027 C 
BRANCH  17  18
HETATM   18  C22 UNL     1       1.756  54.151  -6.267  1.00  0.00     0.164 C 
BRANCH  18  19
HETATM   19  O3  UNL     1       2.433  54.540  -5.080  1.00  0.00    -0.401 OA
HETATM   20  H34 UNL     1       1.773  54.966  -4.504  1.00  0.00     0.209 HD
ENDBRANCH  18  19
ENDBRANCH  17  18
ENDBRANCH  16  17
ENDBRANCH   6  16
BRANCH  12  21
HETATM   21  O5  UNL     1      -0.559  52.358  -9.696  1.00  0.00    -0.389 OA
HETATM   22  H46 UNL     1      -1.460  52.729  -9.705  1.00  0.00     0.210 HD
ENDBRANCH  12  21
BRANCH   1  23
HETATM   23  C14 UNL     1       1.507  51.005 -14.370  1.00  0.00     0.011 C 
HETATM   24  C12 UNL     1       2.029  51.507 -15.511  1.00  0.00    -0.063 C 
HETATM   25  C13 UNL     1       3.363  52.204 -15.589  1.00  0.00     0.048 C 
BRANCH  24  26
HETATM   26  C11 UNL     1       1.234  51.411 -16.740  1.00  0.00     0.006 C 
HETATM   27  C10 UNL     1       1.022  52.393 -17.633  1.00  0.00     0.001 C 
BRANCH  27  28
HETATM   28  C9  UNL     1       0.213  52.206 -18.820  1.00  0.00     0.002 C 
HETATM   29  C7  UNL     1       0.372  52.811 -20.016  1.00  0.00    -0.084 C 
HETATM   30  C8  UNL     1       1.423  53.839 -20.345  1.00  0.00     0.043 C 
BRANCH  29  31
HETATM   31  C6  UNL     1      -0.588  52.497 -21.154  1.00  0.00     0.037 C 
BRANCH  31  32
HETATM   32  C5  UNL     1      -0.662  51.001 -21.478  1.00  0.00     0.031 C 
BRANCH  32  33
HETATM   33  C4  UNL     1      -1.174  50.768 -22.875  1.00  0.00    -0.024 C 
HETATM   34  C2  UNL     1      -0.686  51.275 -24.024  1.00  0.00    -0.091 C 
HETATM   35  C1  UNL     1       0.470  52.234 -24.124  1.00  0.00     0.042 C 
HETATM   36  C3  UNL     1      -1.307  50.915 -25.348  1.00  0.00     0.042 C 
ENDBRANCH  32  33
ENDBRANCH  31  32
ENDBRANCH  29  31
ENDBRANCH  27  28
ENDBRANCH  24  26
ENDBRANCH   1  23
BRANCH   8  37
HETATM   37  C26 UNL     1       4.896  54.617 -10.213  1.00  0.00     0.265 C 
HETATM   38  O4  UNL     1       5.182  53.553  -9.673  1.00  0.00    -0.302 OA
ENDBRANCH   8  37
TORSDOF 13
ENDMDL
