MODEL 1
REMARK minimizedAffinity -8.97662926
REMARK  4 active torsions:
REMARK  status: ('A' for Active; 'I' for Inactive)
REMARK    1  A    between atoms: C4_4  and  C5_5 
REMARK    2  A    between atoms: C5_5  and  C6_6 
REMARK    3  A    between atoms: C6_6  and  C7_7 
REMARK    4  A    between atoms: C7_7  and  C9_9 
ROOT
HETATM    1  C9  UNL     1      -1.386  49.364 -19.362  1.00  0.00    -0.002 C 
HETATM    2  C10 UNL     1      -2.668  48.504 -19.222  1.00  0.00     0.010 C 
HETATM    3  C11 UNL     1      -3.643  48.966 -20.336  1.00  0.00    -0.013 C 
HETATM    4  C12 UNL     1      -4.107  47.753 -21.140  1.00  0.00     0.010 C 
HETATM    5  C13 UNL     1      -2.836  50.006 -21.131  1.00  0.00     0.003 C 
HETATM    6  C14 UNL     1      -3.543  51.080 -21.992  1.00  0.00    -0.000 C 
HETATM    7  C15 UNL     1      -4.600  50.573 -22.965  1.00  0.00     0.006 C 
HETATM    8  C16 UNL     1      -4.075  49.829 -24.187  1.00  0.00     0.006 C 
HETATM    9  C17 UNL     1      -2.605  50.066 -24.596  1.00  0.00     0.003 C 
HETATM   10  C18 UNL     1      -2.351  49.859 -26.133  1.00  0.00    -0.043 C 
HETATM   11  C19 UNL     1      -3.118  50.877 -27.004  1.00  0.00     0.015 C 
HETATM   12  C20 UNL     1      -2.790  48.442 -26.565  1.00  0.00     0.015 C 
HETATM   13  C21 UNL     1      -0.832  49.979 -26.420  1.00  0.00     0.009 C 
HETATM   14  C22 UNL     1      -0.235  51.285 -25.912  1.00  0.00     0.002 C 
HETATM   15  C23 UNL     1      -0.484  51.462 -24.421  1.00  0.00     0.011 C 
HETATM   16  C24 UNL     1      -1.964  51.364 -24.077  1.00  0.00    -0.027 A 
HETATM   17  C25 UNL     1      -2.751  52.655 -23.984  1.00  0.00     0.021 A 
HETATM   18  C26 UNL     1      -2.445  51.884 -22.712  1.00  0.00    -0.028 A 
HETATM   19  C27 UNL     1      -1.471  52.530 -21.731  1.00  0.00     0.011 C 
HETATM   20  C28 UNL     1      -0.839  51.492 -20.790  1.00  0.00     0.011 C 
HETATM   21  C29 UNL     1      -1.905  50.660 -20.045  1.00  0.00    -0.036 C 
HETATM   22  C30 UNL     1      -2.661  51.571 -19.050  1.00  0.00     0.016 C 
ENDROOT
BRANCH   1  23
HETATM   23  C7  UNL     1      -0.503  49.355 -18.080  1.00  0.00    -0.014 C 
HETATM   24  C8  UNL     1      -1.131  48.758 -16.817  1.00  0.00     0.010 C 
BRANCH  23  25
HETATM   25  C6  UNL     1       0.091  50.754 -17.788  1.00  0.00     0.008 C 
BRANCH  25  26
HETATM   26  C5  UNL     1       0.837  50.885 -16.449  1.00  0.00     0.028 C 
BRANCH  26  27
HETATM   27  C4  UNL     1       1.983  51.858 -16.513  1.00  0.00    -0.025 C 
HETATM   28  C2  UNL     1       3.029  51.968 -15.671  1.00  0.00    -0.091 C 
HETATM   29  C1  UNL     1       3.252  51.136 -14.439  1.00  0.00     0.042 C 
HETATM   30  C3  UNL     1       4.103  52.995 -15.919  1.00  0.00     0.042 C 
ENDBRANCH  26  27
ENDBRANCH  25  26
ENDBRANCH  23  25
ENDBRANCH   1  23
TORSDOF 4
ENDMDL
