MODEL 1
REMARK minimizedAffinity -8.18660641
REMARK CNNscore 0.605108202
REMARK CNNaffinity 7.10547829
REMARK  8 active torsions:
REMARK  status: ('A' for Active; 'I' for Inactive)
REMARK    1  A    between atoms: C2_2  and  C30_34 
REMARK    2  A    between atoms: C3_3  and  C4_4 
REMARK    3  A    between atoms: C4_4  and  O1_5 
REMARK    4  A    between atoms: C4_4  and  C5_6 
REMARK    5  A    between atoms: C5_6  and  C6_7 
REMARK    6  A    between atoms: C6_7  and  C8_9 
REMARK    7  A    between atoms: C10_11  and  O2_12 
REMARK    8  A    between atoms: C30_34  and  O6_36 
ROOT
HETATM    1  C8  UNL     1      -8.648   7.053  14.714  1.00  0.00     0.001 C 
HETATM    2  C9  UNL     1      -9.152   5.818  13.912  1.00  0.00     0.038 C 
HETATM    3  C10 UNL     1      -7.899   5.060  13.424  1.00  0.00     0.131 C 
HETATM    4  C11 UNL     1      -6.751   5.597  14.319  1.00  0.00     0.014 C 
HETATM    5  C12 UNL     1      -6.800   4.860  15.695  1.00  0.00     0.023 C 
HETATM    6  C13 UNL     1      -5.309   5.459  13.840  1.00  0.00    -0.058 C 
HETATM    7  C14 UNL     1      -4.356   6.349  14.213  1.00  0.00    -0.000 C 
HETATM    8  C15 UNL     1      -4.754   7.434  15.202  1.00  0.00     0.157 C 
HETATM    9  O3  UNL     1      -3.901   7.996  15.887  1.00  0.00    -0.293 OA
HETATM   10  C16 UNL     1      -6.224   7.807  15.386  1.00  0.00     0.094 C 
HETATM   11  C17 UNL     1      -7.131   7.128  14.358  1.00  0.00    -0.019 C 
HETATM   12  C18 UNL     1      -6.933   7.850  12.992  1.00  0.00     0.017 C 
HETATM   13  C19 UNL     1      -2.884   6.279  13.743  1.00  0.00    -0.008 C 
HETATM   14  C20 UNL     1      -2.466   7.679  13.214  1.00  0.00     0.021 C 
HETATM   15  C21 UNL     1      -1.999   5.894  14.965  1.00  0.00     0.022 C 
HETATM   16  C22 UNL     1      -0.747   5.087  14.657  1.00  0.00     0.080 C 
HETATM   17  C23 UNL     1      -0.254   5.345  13.260  1.00  0.00     0.135 C 
HETATM   18  O4  UNL     1       0.887   5.760  13.058  1.00  0.00    -0.297 OA
HETATM   19  C24 UNL     1      -1.211   4.978  12.124  1.00  0.00     0.018 C 
HETATM   20  C25 UNL     1      -0.873   5.823  10.874  1.00  0.00     0.023 C 
HETATM   21  C26 UNL     1      -0.893   3.514  11.757  1.00  0.00     0.023 C 
HETATM   22  C27 UNL     1      -2.708   5.237  12.559  1.00  0.00     0.014 C 
HETATM   23  C28 UNL     1      -3.500   3.958  12.882  1.00  0.00     0.011 C 
HETATM   24  C29 UNL     1      -4.993   4.253  13.000  1.00  0.00     0.036 C 
ENDROOT
BRANCH   1  25
HETATM   25  C6  UNL     1      -9.607   8.279  14.643  1.00  0.00    -0.011 C 
HETATM   26  C7  UNL     1      -9.668   9.186  15.878  1.00  0.00     0.010 C 
BRANCH  25  27
HETATM   27  C5  UNL     1     -11.029   7.859  14.205  1.00  0.00     0.040 C 
BRANCH  27  28
HETATM   28  C4  UNL     1     -11.560   8.538  12.933  1.00  0.00     0.142 C 
BRANCH  28  29
HETATM   29  C3  UNL     1     -13.037   8.355  12.717  1.00  0.00     0.018 C 
HETATM   30  C2  UNL     1     -13.850   7.382  13.181  1.00  0.00     0.010 C 
HETATM   31  C1  UNL     1     -13.422   6.196  13.996  1.00  0.00     0.055 C 
BRANCH  30  32
HETATM   32  C30 UNL     1     -15.306   7.404  12.874  1.00  0.00     0.171 C 
HETATM   33  O5  UNL     1     -16.182   7.773  13.636  1.00  0.00    -0.646 OA
BRANCH  32  34
HETATM   34  O6  UNL     1     -15.612   6.965  11.642  1.00  0.00    -0.773 OA
HETATM   35  H44 UNL     1     -16.588   7.045  11.612  1.00  0.00     0.167 HD
ENDBRANCH  32  34
ENDBRANCH  30  32
ENDBRANCH  28  29
BRANCH  28  36
HETATM   36  O1  UNL     1     -11.241   9.924  12.996  1.00  0.00    -0.392 OA
HETATM   37  H6  UNL     1     -11.629  10.344  12.209  1.00  0.00     0.210 HD
ENDBRANCH  28  36
ENDBRANCH  27  28
ENDBRANCH  25  27
ENDBRANCH   1  25
BRANCH   3  38
HETATM   38  O2  UNL     1      -8.094   3.658  13.529  1.00  0.00    -0.394 OA
HETATM   39  H17 UNL     1      -8.892   3.432  13.019  1.00  0.00     0.210 HD
ENDBRANCH   3  38
TORSDOF 8
ENDMDL
