MODEL 1
REMARK minimizedAffinity -7.40766191
REMARK CNNscore 0.474373013
REMARK CNNaffinity 6.81253004
REMARK  18 active torsions:
REMARK  status: ('A' for Active; 'I' for Inactive)
REMARK    1  A    between atoms: C4_4  and  C5_5 
REMARK    2  A    between atoms: C5_5  and  C6_6 
REMARK    3  A    between atoms: C6_6  and  C7_7 
REMARK    4  A    between atoms: C9_9  and  C10_10 
REMARK    5  A    between atoms: C10_10  and  O1_11 
REMARK    6  A    between atoms: C10_10  and  C11_12 
REMARK    7  A    between atoms: C11_12  and  C12_13 
REMARK    8  A    between atoms: C14_15  and  C15_16 
REMARK    9  A    between atoms: C15_16  and  C16_17 
REMARK   10  A    between atoms: C16_17  and  C17_18 
REMARK   11  A    between atoms: C17_18  and  C18_19 
REMARK   12  A    between atoms: C18_19  and  O2_20 
REMARK   13  A    between atoms: C19_21  and  C20_22 
REMARK   14  A    between atoms: C20_22  and  C21_23 
REMARK   15  A    between atoms: C21_23  and  C22_24 
REMARK   16  A    between atoms: C22_24  and  O3_25 
REMARK   17  A    between atoms: C24_27  and  C26_29 
REMARK   18  A    between atoms: C29_33  and  O5_35 
ROOT
HETATM    1  C17 UNL     1      -1.504   7.131  13.928  1.00  0.00     0.019 C 
HETATM    2  C19 UNL     1      -1.189   6.630  12.430  1.00  0.00     0.029 C 
HETATM    3  C23 UNL     1       0.317   6.588  12.108  1.00  0.00    -0.066 C 
HETATM    4  C24 UNL     1       0.913   7.020  10.963  1.00  0.00    -0.021 C 
HETATM    5  C25 UNL     1       2.399   6.959  10.702  1.00  0.00     0.052 C 
HETATM    6  C27 UNL     1       1.136   6.144  13.297  1.00  0.00     0.038 C 
HETATM    7  C28 UNL     1       1.026   7.158  14.440  1.00  0.00     0.042 C 
HETATM    8  C29 UNL     1      -0.284   7.994  14.463  1.00  0.00     0.065 C 
HETATM    9  C30 UNL     1      -0.069   9.332  13.734  1.00  0.00     0.047 C 
ENDROOT
BRANCH   1  10
HETATM   10  C16 UNL     1      -2.875   7.921  14.000  1.00  0.00     0.019 C 
BRANCH  10  11
HETATM   11  C15 UNL     1      -3.974   7.610  12.972  1.00  0.00     0.028 C 
BRANCH  11  12
HETATM   12  C14 UNL     1      -5.049   6.746  13.578  1.00  0.00    -0.024 C 
HETATM   13  C12 UNL     1      -6.070   7.121  14.376  1.00  0.00    -0.085 C 
HETATM   14  C13 UNL     1      -6.302   8.522  14.874  1.00  0.00     0.043 C 
BRANCH  13  15
HETATM   15  C11 UNL     1      -7.087   6.088  14.850  1.00  0.00     0.069 C 
BRANCH  15  16
HETATM   16  C10 UNL     1      -7.656   5.198  13.723  1.00  0.00     0.145 C 
BRANCH  16  17
HETATM   17  C9  UNL     1      -8.811   5.874  13.033  1.00  0.00     0.007 C 
HETATM   18  C7  UNL     1      -9.768   6.651  13.581  1.00  0.00    -0.085 C 
HETATM   19  C8  UNL     1      -9.868   6.927  15.061  1.00  0.00     0.043 C 
BRANCH  18  20
HETATM   20  C6  UNL     1     -10.876   7.327  12.777  1.00  0.00     0.037 C 
BRANCH  20  21
HETATM   21  C5  UNL     1     -11.996   8.081  13.516  1.00  0.00     0.031 C 
BRANCH  21  22
HETATM   22  C4  UNL     1     -13.359   7.833  12.921  1.00  0.00    -0.024 C 
HETATM   23  C2  UNL     1     -14.252   6.880  13.253  1.00  0.00    -0.091 C 
HETATM   24  C1  UNL     1     -14.075   5.855  14.338  1.00  0.00     0.042 C 
HETATM   25  C3  UNL     1     -15.570   6.784  12.527  1.00  0.00     0.042 C 
ENDBRANCH  21  22
ENDBRANCH  20  21
ENDBRANCH  18  20
ENDBRANCH  16  17
BRANCH  16  26
HETATM   26  O1  UNL     1      -8.166   3.963  14.230  1.00  0.00    -0.391 OA
HETATM   27  H17 UNL     1      -8.194   4.021  15.201  1.00  0.00     0.210 HD
ENDBRANCH  16  26
ENDBRANCH  15  16
ENDBRANCH  13  15
ENDBRANCH  11  12
ENDBRANCH  10  11
ENDBRANCH   1  10
BRANCH   1  28
HETATM   28  C18 UNL     1      -1.710   5.914  14.918  1.00  0.00     0.177 C 
BRANCH  28  29
HETATM   29  O2  UNL     1      -0.514   5.548  15.599  1.00  0.00    -0.400 OA
HETATM   30  H30 UNL     1       0.166   5.404  14.905  1.00  0.00     0.209 HD
ENDBRANCH  28  29
ENDBRANCH   1  28
BRANCH   2  31
HETATM   31  C20 UNL     1      -1.921   5.300  12.094  1.00  0.00     0.012 C 
BRANCH  31  32
HETATM   32  C21 UNL     1      -1.264   4.383  11.059  1.00  0.00     0.027 C 
BRANCH  32  33
HETATM   33  C22 UNL     1      -0.706   3.089  11.635  1.00  0.00     0.164 C 
BRANCH  33  34
HETATM   34  O3  UNL     1      -1.118   2.018  10.798  1.00  0.00    -0.401 OA
HETATM   35  H38 UNL     1      -0.759   1.197  11.177  1.00  0.00     0.209 HD
ENDBRANCH  33  34
ENDBRANCH  32  33
ENDBRANCH  31  32
ENDBRANCH   2  31
BRANCH   8  36
HETATM   36  O5  UNL     1      -0.484   8.337  15.851  1.00  0.00    -0.389 OA
HETATM   37  H50 UNL     1      -1.066   9.118  15.898  1.00  0.00     0.210 HD
ENDBRANCH   8  36
BRANCH   4  38
HETATM   38  C26 UNL     1       0.150   7.635   9.826  1.00  0.00     0.265 C 
HETATM   39  O4  UNL     1       0.093   8.846   9.643  1.00  0.00    -0.302 OA
ENDBRANCH   4  38
TORSDOF 18
ENDMDL
