MODEL 1
REMARK minimizedAffinity -9.6376791
REMARK  6 active torsions:
REMARK  status: ('A' for Active; 'I' for Inactive)
REMARK    1  A    between atoms: C2_2  and  C30_31 
REMARK    2  A    between atoms: C3_3  and  C4_4 
REMARK    3  A    between atoms: C4_4  and  C5_5 
REMARK    4  A    between atoms: C5_5  and  C6_6 
REMARK    5  A    between atoms: C6_6  and  C8_8 
REMARK    6  A    between atoms: C30_31  and  O3_33 
ROOT
HETATM    1  C8  UNL     1       0.915   6.569  12.378  1.00  0.00    -0.002 C 
HETATM    2  C9  UNL     1       1.000   5.087  11.925  1.00  0.00     0.007 C 
HETATM    3  C10 UNL     1      -0.377   4.446  12.222  1.00  0.00     0.015 C 
HETATM    4  C11 UNL     1      -1.132   5.490  13.075  1.00  0.00    -0.013 C 
HETATM    5  C12 UNL     1      -0.674   5.255  14.552  1.00  0.00     0.021 C 
HETATM    6  C13 UNL     1      -2.655   5.452  13.104  1.00  0.00    -0.070 C 
HETATM    7  C14 UNL     1      -3.344   4.298  13.037  1.00  0.00    -0.022 C 
HETATM    8  C15 UNL     1      -4.831   4.186  13.200  1.00  0.00     0.034 C 
HETATM    9  C16 UNL     1      -5.574   5.540  13.202  1.00  0.00     0.013 C 
HETATM   10  C17 UNL     1      -7.121   5.459  13.502  1.00  0.00     0.018 C 
HETATM   11  C18 UNL     1      -7.909   5.769  12.210  1.00  0.00     0.023 C 
HETATM   12  C19 UNL     1      -7.578   4.068  13.994  1.00  0.00     0.023 C 
HETATM   13  C20 UNL     1      -7.584   6.496  14.538  1.00  0.00     0.135 C 
HETATM   14  O1  UNL     1      -8.512   6.263  15.319  1.00  0.00    -0.297 OA
HETATM   15  C21 UNL     1      -6.966   7.872  14.535  1.00  0.00     0.080 C 
HETATM   16  C22 UNL     1      -5.579   7.938  13.920  1.00  0.00     0.017 C 
HETATM   17  C23 UNL     1      -4.779   6.619  14.017  1.00  0.00    -0.031 C 
HETATM   18  C24 UNL     1      -4.590   6.216  15.500  1.00  0.00     0.016 C 
HETATM   19  C25 UNL     1      -3.376   6.792  13.304  1.00  0.00     0.024 C 
HETATM   20  C26 UNL     1      -2.464   7.884  13.920  1.00  0.00     0.010 C 
HETATM   21  C27 UNL     1      -1.055   8.021  13.292  1.00  0.00     0.011 C 
HETATM   22  C28 UNL     1      -0.626   6.823  12.425  1.00  0.00    -0.029 C 
HETATM   23  C29 UNL     1      -1.145   7.047  10.969  1.00  0.00     0.016 C 
ENDROOT
BRANCH   1  24
HETATM   24  C6  UNL     1       1.787   7.616  11.623  1.00  0.00    -0.014 C 
HETATM   25  C7  UNL     1       1.067   8.451  10.561  1.00  0.00     0.010 C 
BRANCH  24  26
HETATM   26  C5  UNL     1       3.091   6.985  11.058  1.00  0.00     0.008 C 
BRANCH  26  27
HETATM   27  C4  UNL     1       3.781   7.698   9.884  1.00  0.00     0.028 C 
BRANCH  27  28
HETATM   28  C3  UNL     1       2.953   7.714   8.628  1.00  0.00    -0.013 C 
HETATM   29  C2  UNL     1       2.586   6.676   7.851  1.00  0.00     0.008 C 
HETATM   30  C1  UNL     1       1.720   6.860   6.638  1.00  0.00     0.055 C 
BRANCH  29  31
HETATM   31  C30 UNL     1       3.035   5.293   8.128  1.00  0.00     0.171 C 
HETATM   32  O2  UNL     1       3.068   4.730   9.206  1.00  0.00    -0.646 OA
BRANCH  31  33
HETATM   33  O3  UNL     1       3.437   4.677   7.002  1.00  0.00    -0.773 OA
HETATM   34  H46 UNL     1       3.700   3.785   7.309  1.00  0.00     0.167 HD
ENDBRANCH  31  33
ENDBRANCH  29  31
ENDBRANCH  27  28
ENDBRANCH  26  27
ENDBRANCH  24  26
ENDBRANCH   1  24
TORSDOF 6
ENDMDL
