MODEL 1
REMARK minimizedAffinity -6.98277044
REMARK CNNscore 0.646990776
REMARK CNNaffinity 6.70833397
REMARK  4 active torsions:
REMARK  status: ('A' for Active; 'I' for Inactive)
REMARK    1  A    between atoms: C2_2  and  C3_3 
REMARK    2  A    between atoms: C7_7  and  C8_8 
REMARK    3  A    between atoms: C8_8  and  C9_9 
REMARK    4  A    between atoms: C26_31  and  O5_32 
ROOT
HETATM    1  C3  UNL     1     -16.412   8.304  27.519  1.00  0.00     0.008 C 
HETATM    2  C4  UNL     1     -17.272   7.093  27.787  1.00  0.00    -0.026 C 
HETATM    3  C5  UNL     1     -17.000   6.096  28.649  1.00  0.00    -0.028 C 
HETATM    4  C6  UNL     1     -15.765   5.954  29.499  1.00  0.00     0.059 C 
HETATM    5  C7  UNL     1     -15.231   4.511  29.566  1.00  0.00     0.135 C 
HETATM    6  O1  UNL     1     -14.657   4.123  28.289  1.00  0.00    -0.315 OA
HETATM    7  C12 UNL     1     -15.341   3.183  27.570  1.00  0.00     0.276 C 
HETATM    8  O2  UNL     1     -16.480   2.809  27.839  1.00  0.00    -0.264 OA
HETATM    9  C13 UNL     1     -14.465   2.555  26.415  1.00  0.00     0.095 C 
HETATM   10  C14 UNL     1     -15.090   1.138  26.223  1.00  0.00     0.036 C 
HETATM   11  C15 UNL     1     -13.045   2.364  26.934  1.00  0.00     0.003 C 
HETATM   12  C16 UNL     1     -12.001   1.853  26.269  1.00  0.00     0.072 C 
HETATM   13  C17 UNL     1     -11.990   1.355  24.882  1.00  0.00     0.245 C 
HETATM   14  O3  UNL     1     -11.141   0.526  24.561  1.00  0.00    -0.268 OA
HETATM   15  N1  UNL     1     -12.837   1.861  23.950  1.00  0.00    -0.320 N 
HETATM   16  C18 UNL     1     -13.802   2.844  23.977  1.00  0.00     0.098 C 
HETATM   17  C19 UNL     1     -14.483   3.279  25.057  1.00  0.00     0.045 C 
HETATM   18  C20 UNL     1     -15.375   4.467  24.888  1.00  0.00     0.194 C 
HETATM   19  O4  UNL     1     -15.956   4.956  25.841  1.00  0.00    -0.287 OA
HETATM   20  C21 UNL     1     -15.599   5.070  23.561  1.00  0.00     0.046 A 
HETATM   21  C22 UNL     1     -15.058   4.453  22.441  1.00  0.00     0.032 A 
HETATM   22  C23 UNL     1     -15.384   4.888  21.146  1.00  0.00     0.026 A 
HETATM   23  C24 UNL     1     -16.279   5.945  20.952  1.00  0.00    -0.027 A 
HETATM   24  C25 UNL     1     -16.653   6.383  19.564  1.00  0.00     0.051 C 
HETATM   25  C26 UNL     1     -16.788   6.595  22.078  1.00  0.00     0.086 A 
HETATM   26  C27 UNL     1     -16.412   6.199  23.373  1.00  0.00     0.059 A 
HETATM   27  C28 UNL     1     -16.810   7.117  24.461  1.00  0.00     0.163 C 
HETATM   28  O6  UNL     1     -18.010   7.244  24.687  1.00  0.00    -0.292 OA
HETATM   29  C29 UNL     1     -15.744   8.075  24.973  1.00  0.00     0.084 C 
HETATM   30  C30 UNL     1     -15.346   8.013  26.444  1.00  0.00     0.016 C 
HETATM   31  C31 UNL     1     -14.100   3.359  22.602  1.00  0.00     0.210 C 
HETATM   32  O7  UNL     1     -13.541   2.865  21.626  1.00  0.00    -0.285 OA
HETATM   33  H26 UNL     1     -12.570   1.560  23.010  1.00  0.00     0.169 HD
ENDROOT
BRANCH   5  34
HETATM   34  C8  UNL     1     -14.077   4.365  30.579  1.00  0.00     0.037 C 
BRANCH  34  35
HETATM   35  C9  UNL     1     -13.681   2.931  30.974  1.00  0.00    -0.020 C 
HETATM   36  C10 UNL     1     -12.264   2.570  30.529  1.00  0.00     0.009 C 
HETATM   37  C11 UNL     1     -13.806   2.763  32.492  1.00  0.00     0.009 C 
ENDBRANCH  34  35
ENDBRANCH   5  34
BRANCH   1  38
HETATM   38  C2  UNL     1     -17.286   9.545  27.251  1.00  0.00     0.004 C 
HETATM   39  C1  UNL     1     -17.214  10.583  28.364  1.00  0.00     0.006 C 
ENDBRANCH   1  38
BRANCH  25  40
HETATM   40  O5  UNL     1     -17.661   7.634  21.872  1.00  0.00    -0.359 OA
HETATM   41  H31 UNL     1     -18.207   7.753  22.679  1.00  0.00     0.217 HD
ENDBRANCH  25  40
TORSDOF 4
ENDMDL
