MODEL 1
REMARK minimizedAffinity -9.3500042
REMARK  6 active torsions:
REMARK  status: ('A' for Active; 'I' for Inactive)
REMARK    1  A    between atoms: C2_2  and  C3_3 
REMARK    2  A    between atoms: C5_5  and  C6_6 
REMARK    3  A    between atoms: C6_6  and  C7_7 
REMARK    4  A    between atoms: C8_8  and  C9_9 
REMARK       I    between atoms: C9_9  and  N1_11 
REMARK    5  A    between atoms: N1_11  and  C10_12 
REMARK    6  A    between atoms: C10_12  and  C12_14 
ROOT
HETATM    1  C7  UNL     1      -2.703  50.902 -22.731  1.00  0.00     0.036 C 
HETATM    2  C8  UNL     1      -3.269  51.580 -23.971  1.00  0.00     0.011 C 
HETATM    3  C18 UNL     1      -4.594  51.768 -24.084  1.00  0.00    -0.013 C 
HETATM    4  C19 UNL     1      -5.492  51.229 -23.022  1.00  0.00     0.034 C 
HETATM    5  C20 UNL     1      -5.100  49.774 -22.668  1.00  0.00     0.005 C 
HETATM    6  C21 UNL     1      -6.048  49.150 -21.579  1.00  0.00    -0.043 C 
HETATM    7  C22 UNL     1      -7.445  48.875 -22.193  1.00  0.00     0.015 C 
HETATM    8  C23 UNL     1      -6.274  50.068 -20.358  1.00  0.00     0.015 C 
HETATM    9  C24 UNL     1      -5.476  47.795 -21.130  1.00  0.00     0.009 C 
HETATM   10  C25 UNL     1      -4.085  47.880 -20.524  1.00  0.00     0.002 C 
HETATM   11  C26 UNL     1      -3.235  49.051 -21.010  1.00  0.00     0.010 C 
HETATM   12  C27 UNL     1      -3.523  49.558 -22.443  1.00  0.00    -0.031 C 
HETATM   13  C28 UNL     1      -3.051  48.456 -23.435  1.00  0.00     0.016 C 
ENDROOT
BRANCH   2  14
HETATM   14  C9  UNL     1      -2.420  52.077 -25.079  1.00  0.00     0.248 C 
HETATM   15  O1  UNL     1      -1.978  53.217 -25.095  1.00  0.00    -0.268 OA
HETATM   16  N1  UNL     1      -2.209  51.124 -26.042  1.00  0.00    -0.349 N 
HETATM   17  H11 UNL     1      -2.758  50.276 -25.991  1.00  0.00     0.163 HD
BRANCH  16  18
HETATM   18  C10 UNL     1      -1.604  51.455 -27.319  1.00  0.00     0.114 C 
HETATM   19  C11 UNL     1      -2.171  52.777 -27.843  1.00  0.00     0.037 C 
BRANCH  18  20
HETATM   20  C12 UNL     1      -0.092  51.477 -27.177  1.00  0.00    -0.036 A 
HETATM   21  C13 UNL     1       0.698  51.898 -28.260  1.00  0.00     0.009 A 
HETATM   22  C14 UNL     1       2.090  51.917 -28.165  1.00  0.00     0.001 A 
HETATM   23  C15 UNL     1       2.715  51.505 -26.991  1.00  0.00     0.000 A 
HETATM   24  C16 UNL     1       1.949  51.061 -25.914  1.00  0.00     0.001 A 
HETATM   25  C17 UNL     1       0.556  51.043 -26.008  1.00  0.00     0.009 A 
ENDBRANCH  18  20
ENDBRANCH  16  18
ENDBRANCH   2  14
BRANCH   1  26
HETATM   26  C6  UNL     1      -1.147  50.790 -22.780  1.00  0.00     0.038 C 
BRANCH  26  27
HETATM   27  C5  UNL     1      -0.389  51.909 -22.113  1.00  0.00    -0.019 C 
HETATM   28  C3  UNL     1      -0.037  52.036 -20.816  1.00  0.00    -0.067 C 
HETATM   29  C4  UNL     1      -0.371  51.028 -19.746  1.00  0.00     0.048 C 
BRANCH  28  30
HETATM   30  C2  UNL     1       0.716  53.223 -20.416  1.00  0.00    -0.004 C 
HETATM   31  C1  UNL     1       1.395  54.049 -21.223  1.00  0.00     0.012 C 
ENDBRANCH  28  30
ENDBRANCH  26  27
ENDBRANCH   1  26
TORSDOF 6
ENDMDL
