MODEL 1
REMARK minimizedAffinity -8.77417278
REMARK  4 active torsions:
REMARK  status: ('A' for Active; 'I' for Inactive)
REMARK    1  A    between atoms: C4_4  and  C5_5 
REMARK    2  A    between atoms: C7_7  and  N1_8 
REMARK    3  A    between atoms: C9_10  and  C10_11 
REMARK    4  A    between atoms: C10_11  and  N2_12 
ROOT
HETATM    1  N1  UNL     1      -7.089   6.049  13.636  1.00  0.00    -0.300 N 
HETATM    2  C8  UNL     1      -6.045   6.953  13.700  1.00  0.00     0.109 A 
HETATM    3  C9  UNL     1      -4.886   6.374  13.221  1.00  0.00    -0.011 A 
HETATM    4  C14 UNL     1      -5.232   5.046  12.826  1.00  0.00     0.000 A 
HETATM    5  C15 UNL     1      -4.495   3.978  12.268  1.00  0.00     0.014 A 
HETATM    6  C16 UNL     1      -5.130   2.767  11.978  1.00  0.00     0.001 A 
HETATM    7  C17 UNL     1      -6.483   2.604  12.238  1.00  0.00     0.002 A 
HETATM    8  C18 UNL     1      -7.236   3.642  12.794  1.00  0.00     0.031 A 
HETATM    9  C19 UNL     1      -6.598   4.865  13.085  1.00  0.00     0.051 A 
ENDROOT
BRANCH   1  10
HETATM   10  C7  UNL     1      -8.405   6.297  14.048  1.00  0.00     0.179 A 
HETATM   11  C6  UNL     1      -9.508   6.504  13.244  1.00  0.00     0.091 A 
HETATM   12  C5  UNL     1     -10.602   6.705  14.133  1.00  0.00     0.069 A 
HETATM   13  N4  UNL     1     -10.172   6.618  15.401  1.00  0.00    -0.258 N 
HETATM   14  O1  UNL     1      -8.820   6.376  15.344  1.00  0.00    -0.219 OA
ATOM     15  H4  UNL     1     -10.738   6.714  16.245  1.00  0.00     0.195 HD
BRANCH  12  16
HETATM   16  C4  UNL     1     -12.008   6.964  13.809  1.00  0.00    -0.007 A 
HETATM   17  C3  UNL     1     -13.018   6.110  14.285  1.00  0.00     0.014 A 
HETATM   18  C2  UNL     1     -14.360   6.344  13.977  1.00  0.00     0.001 A 
HETATM   19  C1  UNL     1     -14.714   7.437  13.190  1.00  0.00     0.000 A 
HETATM   20  C21 UNL     1     -13.726   8.297  12.714  1.00  0.00     0.001 A 
HETATM   21  C20 UNL     1     -12.382   8.063  13.020  1.00  0.00     0.014 A 
ENDBRANCH  12  16
ENDBRANCH   1  10
BRANCH   3  22
HETATM   22  C10 UNL     1      -3.541   7.017  13.127  1.00  0.00     0.170 C 
BRANCH  22  23
HETATM   23  N2  UNL     1      -3.077   7.461  14.430  1.00  0.00    -0.347 N 
HETATM   24  C11 UNL     1      -2.561   8.692  14.732  1.00  0.00     0.109 A 
HETATM   25  C12 UNL     1      -2.222   8.616  16.063  1.00  0.00     0.106 A 
HETATM   26  N3  UNL     1      -2.512   7.376  16.570  1.00  0.00    -0.361 N 
HETATM   27  C13 UNL     1      -3.027   6.702  15.565  1.00  0.00     0.182 A 
ATOM     28  H3  UNL     1      -2.361   7.046  17.524  1.00  0.00     0.166 HD
ENDBRANCH  22  23
ENDBRANCH   3  22
TORSDOF 4
ENDMDL
