MODEL 1
REMARK minimizedAffinity -7.40645266
REMARK CNNscore 0.441301584
REMARK CNNaffinity 6.80286837
REMARK  6 active torsions:
REMARK  status: ('A' for Active; 'I' for Inactive)
REMARK    1  A    between atoms: C2_2  and  O2_4 
REMARK    2  A    between atoms: O2_4  and  C3_5 
REMARK    3  A    between atoms: C13_15  and  C14_16 
REMARK    4  A    between atoms: C14_16  and  C16_18 
REMARK    5  A    between atoms: C16_18  and  C17_19 
REMARK    6  A    between atoms: C17_19  and  C18_20 
ROOT
HETATM    1  C3  UNL     1       2.470   7.157   9.560  1.00  0.00     0.136 C 
HETATM    2  C4  UNL     1       1.348   8.198   9.434  1.00  0.00     0.034 C 
HETATM    3  C5  UNL     1       0.270   8.070  10.510  1.00  0.00     0.013 C 
HETATM    4  C6  UNL     1       0.839   7.939  11.928  1.00  0.00    -0.027 A 
HETATM    5  C7  UNL     1       0.069   6.964  12.791  1.00  0.00     0.021 A 
HETATM    6  C8  UNL     1       0.062   8.426  13.184  1.00  0.00    -0.027 A 
HETATM    7  C9  UNL     1      -1.228   9.212  12.944  1.00  0.00     0.011 C 
HETATM    8  C10 UNL     1      -2.070   9.609  14.172  1.00  0.00     0.011 C 
HETATM    9  C11 UNL     1      -1.379   9.403  15.527  1.00  0.00    -0.032 C 
HETATM   10  C12 UNL     1      -1.614   7.921  15.959  1.00  0.00     0.016 C 
HETATM   11  C13 UNL     1      -1.831  10.351  16.692  1.00  0.00    -0.002 C 
HETATM   12  C22 UNL     1      -0.594  10.328  17.641  1.00  0.00     0.006 C 
HETATM   13  C23 UNL     1       0.602   9.797  16.840  1.00  0.00     0.011 C 
HETATM   14  C24 UNL     1       0.137   9.789  15.372  1.00  0.00    -0.032 C 
HETATM   15  C25 UNL     1       0.389  11.226  14.818  1.00  0.00     0.016 C 
HETATM   16  C26 UNL     1       0.848   8.730  14.487  1.00  0.00     0.004 C 
HETATM   17  C27 UNL     1       2.330   9.023  14.219  1.00  0.00     0.006 C 
HETATM   18  C28 UNL     1       2.953   7.910  13.377  1.00  0.00     0.006 C 
HETATM   19  C29 UNL     1       2.373   7.949  11.960  1.00  0.00     0.001 C 
HETATM   20  C30 UNL     1       2.857   6.820  11.024  1.00  0.00     0.016 C 
HETATM   21  C31 UNL     1       4.357   6.535  11.110  1.00  0.00     0.013 C 
ENDROOT
BRANCH  11  22
HETATM   22  C14 UNL     1      -3.161  10.059  17.451  1.00  0.00    -0.014 C 
HETATM   23  C15 UNL     1      -4.386  10.341  16.572  1.00  0.00     0.010 C 
BRANCH  22  24
HETATM   24  C16 UNL     1      -3.271  10.896  18.757  1.00  0.00     0.008 C 
BRANCH  24  25
HETATM   25  C17 UNL     1      -3.238  12.415  18.522  1.00  0.00     0.028 C 
BRANCH  25  26
HETATM   26  C18 UNL     1      -4.597  13.041  18.381  1.00  0.00    -0.025 C 
HETATM   27  C19 UNL     1      -5.454  13.400  19.357  1.00  0.00    -0.091 C 
HETATM   28  C20 UNL     1      -5.228  13.208  20.830  1.00  0.00     0.042 C 
HETATM   29  C21 UNL     1      -6.775  14.045  19.016  1.00  0.00     0.042 C 
ENDBRANCH  25  26
ENDBRANCH  24  25
ENDBRANCH  22  24
ENDBRANCH  11  22
BRANCH   1  30
HETATM   30  O2  UNL     1       2.063   5.922   8.925  1.00  0.00    -0.316 OA
BRANCH  30  31
HETATM   31  C2  UNL     1       2.679   5.618   7.750  1.00  0.00     0.255 C 
HETATM   32  C1  UNL     1       2.290   6.610   6.698  1.00  0.00     0.126 C 
HETATM   33  O1  UNL     1       3.450   4.687   7.564  1.00  0.00    -0.266 OA
ENDBRANCH  30  31
ENDBRANCH   1  30
TORSDOF 6
ENDMDL
