MODEL 1
REMARK minimizedAffinity -9.29130077
REMARK  9 active torsions:
REMARK  status: ('A' for Active; 'I' for Inactive)
REMARK    1  A    between atoms: C2_2  and  C3_3 
REMARK    2  A    between atoms: C2_2  and  C9_11 
REMARK    3  A    between atoms: C3_3  and  C4_4 
REMARK    4  A    between atoms: C4_4  and  C5_5 
REMARK    5  A    between atoms: C6_6  and  C7_7 
REMARK    6  A    between atoms: C6_6  and  C8_9 
REMARK    7  A    between atoms: C7_7  and  O1_8 
REMARK    8  A    between atoms: C8_9  and  O2_10 
REMARK    9  A    between atoms: C30_34  and  O5_35 
ROOT
HETATM    1  C9  UNL     1      -2.226   6.117  12.906  1.00  0.00    -0.001 C 
HETATM    2  C10 UNL     1      -2.106   5.124  11.714  1.00  0.00     0.007 C 
HETATM    3  C11 UNL     1      -0.678   5.262  11.160  1.00  0.00     0.015 C 
HETATM    4  C12 UNL     1       0.123   5.917  12.301  1.00  0.00    -0.009 C 
HETATM    5  C13 UNL     1       0.461   4.775  13.316  1.00  0.00     0.021 C 
HETATM    6  C14 UNL     1       1.470   6.599  12.039  1.00  0.00    -0.032 C 
HETATM    7  C15 UNL     1       1.955   7.528  12.910  1.00  0.00     0.002 C 
HETATM    8  C16 UNL     1       1.024   8.060  13.995  1.00  0.00     0.157 C 
HETATM    9  O3  UNL     1       1.402   8.919  14.790  1.00  0.00    -0.293 OA
HETATM   10  C17 UNL     1      -0.402   7.540  14.121  1.00  0.00     0.094 C 
HETATM   11  C18 UNL     1      -0.922   6.972  12.805  1.00  0.00    -0.022 C 
HETATM   12  C19 UNL     1      -1.102   8.155  11.809  1.00  0.00     0.017 C 
HETATM   13  C20 UNL     1       3.404   8.094  12.824  1.00  0.00    -0.008 C 
HETATM   14  C21 UNL     1       3.270   9.484  12.165  1.00  0.00     0.021 C 
HETATM   15  C22 UNL     1       4.088   8.236  14.216  1.00  0.00     0.022 C 
HETATM   16  C23 UNL     1       5.560   8.614  14.162  1.00  0.00     0.080 C 
HETATM   17  C24 UNL     1       6.351   7.642  13.328  1.00  0.00     0.135 C 
HETATM   18  O4  UNL     1       7.408   7.177  13.755  1.00  0.00    -0.297 OA
HETATM   19  C25 UNL     1       5.830   7.341  11.917  1.00  0.00     0.018 C 
HETATM   20  C26 UNL     1       6.240   8.495  10.992  1.00  0.00     0.023 C 
HETATM   21  C27 UNL     1       6.554   6.068  11.405  1.00  0.00     0.023 C 
HETATM   22  C28 UNL     1       4.291   7.063  12.013  1.00  0.00     0.016 C 
HETATM   23  C29 UNL     1       3.634   6.766  10.663  1.00  0.00     0.043 C 
HETATM   24  C30 UNL     1       2.267   6.107  10.851  1.00  0.00     0.149 C 
ENDROOT
BRANCH   1  25
HETATM   25  C2  UNL     1      -3.651   6.735  13.030  1.00  0.00    -0.014 C 
HETATM   26  C1  UNL     1      -3.733   8.261  13.191  1.00  0.00     0.010 C 
BRANCH  25  27
HETATM   27  C3  UNL     1      -4.547   6.085  14.110  1.00  0.00     0.008 C 
BRANCH  27  28
HETATM   28  C4  UNL     1      -5.800   5.353  13.614  1.00  0.00     0.028 C 
BRANCH  28  29
HETATM   29  C5  UNL     1      -5.510   4.214  12.676  1.00  0.00    -0.020 C 
HETATM   30  C6  UNL     1      -6.297   3.156  12.390  1.00  0.00    -0.037 C 
BRANCH  30  31
HETATM   31  C7  UNL     1      -7.677   2.960  12.957  1.00  0.00     0.200 C 
BRANCH  31  32
HETATM   32  O1  UNL     1      -8.159   1.682  12.577  1.00  0.00    -0.397 OA
HETATM   33  H12 UNL     1      -7.574   1.027  13.001  1.00  0.00     0.209 HD
ENDBRANCH  31  32
ENDBRANCH  30  31
BRANCH  30  34
HETATM   34  C8  UNL     1      -5.895   2.068  11.415  1.00  0.00     0.200 C 
BRANCH  34  35
HETATM   35  O2  UNL     1      -5.342   2.612  10.222  1.00  0.00    -0.397 OA
HETATM   36  H15 UNL     1      -5.101   1.856   9.661  1.00  0.00     0.209 HD
ENDBRANCH  34  35
ENDBRANCH  30  34
ENDBRANCH  28  29
ENDBRANCH  27  28
ENDBRANCH  25  27
ENDBRANCH   1  25
BRANCH  24  37
HETATM   37  O5  UNL     1       1.525   6.355   9.663  1.00  0.00    -0.391 OA
HETATM   38  H46 UNL     1       2.034   6.002   8.915  1.00  0.00     0.210 HD
ENDBRANCH  24  37
TORSDOF 9
ENDMDL
