MODEL 1
REMARK minimizedAffinity -7.08310652
REMARK CNNscore 0.479304135
REMARK CNNaffinity 6.60332727
REMARK  4 active torsions:
REMARK  status: ('A' for Active; 'I' for Inactive)
REMARK    1  A    between atoms: C4_4  and  C5_5 
REMARK    2  A    between atoms: C5_5  and  C6_7 
REMARK    3  A    between atoms: C6_7  and  C7_8 
REMARK    4  A    between atoms: C7_8  and  C9_10 
ROOT
HETATM    1  C9  UNL     1      -9.579   7.340  13.997  1.00  0.00    -0.002 C 
HETATM    2  C10 UNL     1     -10.908   6.530  13.882  1.00  0.00     0.006 C 
HETATM    3  C11 UNL     1     -12.013   7.357  14.574  1.00  0.00     0.011 C 
HETATM    4  C12 UNL     1     -11.403   8.760  14.745  1.00  0.00    -0.032 C 
HETATM    5  C13 UNL     1     -11.576   9.468  13.357  1.00  0.00     0.016 C 
HETATM    6  C14 UNL     1     -12.045   9.615  15.897  1.00  0.00     0.004 C 
HETATM    7  C15 UNL     1     -13.314  10.376  15.453  1.00  0.00     0.007 C 
HETATM    8  C16 UNL     1     -14.026  11.160  16.562  1.00  0.00     0.007 C 
HETATM    9  C17 UNL     1     -13.163  11.468  17.800  1.00  0.00     0.010 C 
HETATM   10  C18 UNL     1     -13.724  12.605  18.706  1.00  0.00     0.018 C 
HETATM   11  C19 UNL     1     -15.241  12.444  18.933  1.00  0.00     0.023 C 
HETATM   12  C20 UNL     1     -13.042  12.584  20.088  1.00  0.00     0.023 C 
HETATM   13  C21 UNL     1     -13.463  13.975  18.072  1.00  0.00     0.135 C 
HETATM   14  O2  UNL     1     -14.107  14.976  18.400  1.00  0.00    -0.297 OA
HETATM   15  C22 UNL     1     -12.400  14.078  17.004  1.00  0.00     0.080 C 
HETATM   16  C23 UNL     1     -11.246  13.140  17.303  1.00  0.00     0.018 C 
HETATM   17  C24 UNL     1     -11.696  11.695  17.393  1.00  0.00    -0.026 A 
HETATM   18  C25 UNL     1     -10.739  10.683  17.968  1.00  0.00     0.021 A 
HETATM   19  C26 UNL     1     -11.036  10.633  16.481  1.00  0.00    -0.027 A 
HETATM   20  C27 UNL     1      -9.833  10.942  15.600  1.00  0.00     0.011 C 
HETATM   21  C28 UNL     1      -9.082   9.691  15.094  1.00  0.00     0.011 C 
HETATM   22  C29 UNL     1      -9.910   8.390  15.104  1.00  0.00    -0.032 C 
HETATM   23  C30 UNL     1      -9.761   7.713  16.494  1.00  0.00     0.016 C 
ENDROOT
BRANCH   1  24
HETATM   24  C7  UNL     1      -8.307   6.440  13.972  1.00  0.00    -0.007 C 
HETATM   25  C8  UNL     1      -6.967   7.065  14.371  1.00  0.00     0.011 C 
BRANCH  24  26
HETATM   26  C6  UNL     1      -8.213   5.506  12.742  1.00  0.00     0.087 C 
BRANCH  26  27
HETATM   27  C5  UNL     1      -7.577   4.137  12.915  1.00  0.00     0.149 C 
HETATM   28  O1  UNL     1      -8.215   3.138  13.243  1.00  0.00    -0.293 OA
BRANCH  27  29
HETATM   29  C4  UNL     1      -6.110   3.960  12.690  1.00  0.00     0.052 C 
HETATM   30  C2  UNL     1      -5.440   3.016  12.002  1.00  0.00    -0.084 C 
HETATM   31  C1  UNL     1      -3.938   3.106  11.882  1.00  0.00     0.043 C 
HETATM   32  C3  UNL     1      -6.031   1.802  11.345  1.00  0.00     0.043 C 
ENDBRANCH  27  29
ENDBRANCH  26  27
ENDBRANCH  24  26
ENDBRANCH   1  24
TORSDOF 4
ENDMDL
