MODEL 1
REMARK minimizedAffinity -6.48101473
REMARK CNNscore 0.636348486
REMARK CNNaffinity 6.25107145
REMARK  6 active torsions:
REMARK  status: ('A' for Active; 'I' for Inactive)
REMARK    1  A    between atoms: C6_8  and  C7_9 
REMARK    2  A    between atoms: C10_12  and  O1_13 
REMARK    3  A    between atoms: O1_13  and  C11_14 
REMARK    4  A    between atoms: C18_22  and  C19_23 
REMARK    5  A    between atoms: C22_26  and  O2_27 
REMARK    6  A    between atoms: O2_27  and  C23_28 
ROOT
HETATM    1  C1  UNL     1     -10.246 -15.775  26.583  1.00  0.00     0.049 C 
HETATM    2  C2  UNL     1     -10.935 -14.770  27.464  1.00  0.00    -0.046 A 
HETATM    3  C3  UNL     1     -11.470 -15.133  28.651  1.00  0.00     0.056 A 
HETATM    4  C4  UNL     1     -12.122 -14.175  29.475  1.00  0.00     0.112 A 
HETATM    5  N1  UNL     1     -12.723 -14.310  30.636  1.00  0.00    -0.350 N 
ATOM      6  H1  UNL     1     -12.832 -15.165  31.183  1.00  0.00     0.166 HD
HETATM    7  C5  UNL     1     -13.172 -13.056  30.952  1.00  0.00     0.120 A 
HETATM    8  C6  UNL     1     -12.836 -12.128  29.984  1.00  0.00     0.066 A 
HETATM    9  N2  UNL     1     -12.170 -12.864  29.016  1.00  0.00    -0.305 N 
HETATM   10  C17 UNL     1     -11.635 -12.469  27.789  1.00  0.00     0.112 A 
HETATM   11  C18 UNL     1     -11.019 -13.372  26.998  1.00  0.00    -0.004 A 
ENDROOT
BRANCH   8  12
HETATM   12  C7  UNL     1     -13.112 -10.698  29.929  1.00  0.00    -0.007 A 
HETATM   13  C8  UNL     1     -12.594  -9.907  28.895  1.00  0.00     0.016 A 
HETATM   14  C9  UNL     1     -12.856  -8.535  28.855  1.00  0.00     0.037 A 
HETATM   15  C10 UNL     1     -13.608  -7.944  29.867  1.00  0.00     0.069 A 
HETATM   16  C15 UNL     1     -14.159  -8.726  30.879  1.00  0.00     0.037 A 
HETATM   17  C16 UNL     1     -13.897 -10.097  30.920  1.00  0.00     0.016 A 
BRANCH  15  18
HETATM   18  O1  UNL     1     -13.917  -6.616  29.802  1.00  0.00    -0.341 OA
BRANCH  18  19
HETATM   19  C11 UNL     1     -13.006  -5.703  30.456  1.00  0.00     0.057 C 
HETATM   20  C12 UNL     1     -12.316  -4.759  29.462  1.00  0.00     0.045 C 
HETATM   21  C13 UNL     1     -13.908  -4.857  31.372  1.00  0.00     0.045 C 
HETATM   22  C14 UNL     1     -11.968  -6.416  31.336  1.00  0.00     0.045 C 
ENDBRANCH  18  19
ENDBRANCH  15  18
ENDBRANCH   8  12
BRANCH  11  23
HETATM   23  C19 UNL     1     -10.480 -12.882  25.719  1.00  0.00    -0.024 A 
HETATM   24  C20 UNL     1     -11.310 -12.763  24.601  1.00  0.00     0.015 A 
HETATM   25  C21 UNL     1     -10.793 -12.290  23.392  1.00  0.00     0.037 A 
HETATM   26  C22 UNL     1      -9.446 -11.935  23.280  1.00  0.00     0.069 A 
HETATM   27  C26 UNL     1      -8.618 -12.047  24.397  1.00  0.00     0.037 A 
HETATM   28  C27 UNL     1      -9.133 -12.519  25.610  1.00  0.00     0.015 A 
BRANCH  26  29
HETATM   29  O2  UNL     1      -9.084 -11.485  22.042  1.00  0.00    -0.347 OA
BRANCH  29  30
HETATM   30  C23 UNL     1      -9.923 -10.545  21.364  1.00  0.00     0.120 C 
HETATM   31  C24 UNL     1      -8.995  -9.534  20.692  1.00  0.00     0.040 C 
HETATM   32  C25 UNL     1     -10.760 -11.262  20.309  1.00  0.00     0.040 C 
ENDBRANCH  29  30
ENDBRANCH  26  29
ENDBRANCH  11  23
TORSDOF 6
ENDMDL
