MODEL 1
REMARK minimizedAffinity -9.2746439
REMARK  4 active torsions:
REMARK  status: ('A' for Active; 'I' for Inactive)
REMARK    1  A    between atoms: C4_4  and  C5_5 
REMARK    2  A    between atoms: C5_5  and  C6_6 
REMARK    3  A    between atoms: C6_6  and  C7_7 
REMARK    4  A    between atoms: C7_7  and  C9_9 
ROOT
HETATM    1  C9  UNL     1      -0.461  50.457 -21.530  1.00  0.00    -0.002 C 
HETATM    2  C10 UNL     1      -0.416  50.136 -20.013  1.00  0.00     0.007 C 
HETATM    3  C11 UNL     1      -1.714  49.359 -19.688  1.00  0.00     0.015 C 
HETATM    4  C12 UNL     1      -2.299  48.961 -21.063  1.00  0.00    -0.013 C 
HETATM    5  C13 UNL     1      -1.546  47.654 -21.476  1.00  0.00     0.021 C 
HETATM    6  C14 UNL     1      -3.785  48.643 -21.208  1.00  0.00    -0.070 C 
HETATM    7  C15 UNL     1      -4.586  48.413 -20.154  1.00  0.00    -0.022 C 
HETATM    8  C16 UNL     1      -6.014  47.962 -20.252  1.00  0.00     0.038 C 
HETATM    9  C17 UNL     1      -6.405  47.337 -21.631  1.00  0.00    -0.019 C 
HETATM   10  C18 UNL     1      -5.657  45.959 -21.716  1.00  0.00     0.017 C 
HETATM   11  C19 UNL     1      -7.999  47.092 -21.735  1.00  0.00     0.021 C 
HETATM   12  C20 UNL     1      -8.839  48.021 -20.818  1.00  0.00     0.024 C 
HETATM   13  C21 UNL     1      -8.441  45.657 -21.356  1.00  0.00     0.024 C 
HETATM   14  C22 UNL     1      -8.479  47.299 -23.184  1.00  0.00     0.135 C 
HETATM   15  O1  UNL     1      -9.635  47.633 -23.453  1.00  0.00    -0.297 OA
HETATM   16  C23 UNL     1      -7.517  46.977 -24.299  1.00  0.00     0.080 C 
HETATM   17  C24 UNL     1      -6.185  47.708 -24.181  1.00  0.00     0.018 C 
HETATM   18  C25 UNL     1      -5.865  48.313 -22.782  1.00  0.00    -0.028 C 
HETATM   19  C26 UNL     1      -6.549  49.711 -22.709  1.00  0.00     0.016 C 
HETATM   20  C27 UNL     1      -4.281  48.494 -22.660  1.00  0.00     0.024 C 
HETATM   21  C28 UNL     1      -3.691  49.565 -23.635  1.00  0.00     0.010 C 
HETATM   22  C29 UNL     1      -2.219  49.948 -23.392  1.00  0.00     0.011 C 
HETATM   23  C30 UNL     1      -1.958  50.240 -21.903  1.00  0.00    -0.029 C 
HETATM   24  C31 UNL     1      -2.813  51.474 -21.489  1.00  0.00     0.016 C 
ENDROOT
BRANCH   1  25
HETATM   25  C7  UNL     1       0.249  51.768 -21.987  1.00  0.00    -0.014 C 
HETATM   26  C8  UNL     1       0.182  52.778 -20.826  1.00  0.00     0.010 C 
BRANCH  25  27
HETATM   27  C6  UNL     1      -0.316  52.415 -23.276  1.00  0.00     0.008 C 
BRANCH  27  28
HETATM   28  C5  UNL     1       0.749  52.816 -24.314  1.00  0.00     0.028 C 
BRANCH  28  29
HETATM   29  C4  UNL     1       0.370  52.505 -25.735  1.00  0.00    -0.025 C 
HETATM   30  C2  UNL     1       1.103  51.885 -26.679  1.00  0.00    -0.091 C 
HETATM   31  C1  UNL     1       2.506  51.373 -26.501  1.00  0.00     0.042 C 
HETATM   32  C3  UNL     1       0.537  51.659 -28.058  1.00  0.00     0.042 C 
ENDBRANCH  28  29
ENDBRANCH  27  28
ENDBRANCH  25  27
ENDBRANCH   1  25
TORSDOF 4
ENDMDL
