MODEL 1
REMARK minimizedAffinity -8.26671886
REMARK CNNscore 0.767975271
REMARK CNNaffinity 7.13560915
REMARK  12 active torsions:
REMARK  status: ('A' for Active; 'I' for Inactive)
REMARK    1  A    between atoms: N1_6  and  O1_8 
REMARK    2  A    between atoms: O1_8  and  C6_9 
REMARK    3  A    between atoms: C6_9  and  C7_10 
REMARK       I    between atoms: C7_10  and  N2_12 
REMARK    4  A    between atoms: N2_12  and  C8_13 
REMARK    5  A    between atoms: C8_13  and  C9_14 
REMARK    6  A    between atoms: C12_17  and  C13_18 
REMARK    7  A    between atoms: C13_18  and  O4_20 
REMARK    8  A    between atoms: C22_29  and  O5_30 
REMARK    9  A    between atoms: C29_37  and  O6_38 
REMARK   10  A    between atoms: C29_37  and  C30_39 
REMARK   11  A    between atoms: C30_39  and  C31_41 
REMARK   12  A    between atoms: C31_41  and  O8_42 
ROOT
HETATM    1  C1  UNL     1       2.740  55.859 -10.914  1.00  0.00     0.020 C 
HETATM    2  C2  UNL     1       2.161  54.672 -10.114  1.00  0.00    -0.014 C 
HETATM    3  C3  UNL     1       3.054  53.418 -10.354  1.00  0.00     0.020 C 
HETATM    4  C4  UNL     1       2.882  52.789 -11.732  1.00  0.00     0.060 C 
HETATM    5  C5  UNL     1       1.427  52.434 -11.954  1.00  0.00     0.032 C 
HETATM    6  N1  UNL     1       1.002  51.392 -12.607  1.00  0.00    -0.271 N 
ATOM      7  H1  UNL     1       0.016  51.168 -12.737  1.00  0.00     0.194 HD
HETATM    8  C16 UNL     1       0.409  53.379 -11.430  1.00  0.00     0.030 C 
HETATM    9  C17 UNL     1       0.742  54.415 -10.641  1.00  0.00    -0.069 C 
HETATM   10  C18 UNL     1      -0.310  55.423 -10.246  1.00  0.00     0.035 C 
HETATM   11  C19 UNL     1      -0.359  55.621  -8.738  1.00  0.00     0.010 C 
HETATM   12  C20 UNL     1       1.015  56.001  -8.164  1.00  0.00    -0.002 C 
HETATM   13  C21 UNL     1       2.084  54.932  -8.555  1.00  0.00     0.031 C 
HETATM   14  C22 UNL     1       3.448  55.180  -7.848  1.00  0.00     0.124 C 
HETATM   15  C23 UNL     1       3.314  55.420  -6.328  1.00  0.00     0.045 C 
HETATM   16  C24 UNL     1       2.278  56.507  -5.962  1.00  0.00     0.001 C 
HETATM   17  C25 UNL     1       2.772  57.910  -6.406  1.00  0.00     0.019 C 
HETATM   18  C26 UNL     1       0.946  56.093  -6.632  1.00  0.00     0.002 C 
HETATM   19  C27 UNL     1      -0.077  57.035  -6.010  1.00  0.00     0.009 C 
HETATM   20  C28 UNL     1       0.393  57.189  -4.552  1.00  0.00     0.047 C 
HETATM   21  C29 UNL     1       1.820  56.567  -4.466  1.00  0.00     0.128 C 
ENDROOT
BRANCH   6  22
HETATM   22  O1  UNL     1       2.052  50.614 -13.110  1.00  0.00    -0.271 OA
BRANCH  22  23
HETATM   23  C6  UNL     1       2.283  50.978 -14.469  1.00  0.00     0.303 C 
BRANCH  23  24
HETATM   24  C7  UNL     1       1.095  50.593 -15.342  1.00  0.00     0.244 C 
HETATM   25  O2  UNL     1       0.267  49.757 -14.992  1.00  0.00    -0.271 OA
HETATM   26  N2  UNL     1       0.998  51.318 -16.512  1.00  0.00    -0.355 N 
HETATM   27  H10 UNL     1       1.823  51.834 -16.796  1.00  0.00     0.162 HD
BRANCH  26  28
HETATM   28  C8  UNL     1      -0.033  51.062 -17.489  1.00  0.00     0.161 C 
BRANCH  28  29
HETATM   29  C9  UNL     1       0.262  51.765 -18.789  1.00  0.00    -0.040 A 
HETATM   30  C10 UNL     1       0.926  53.000 -18.787  1.00  0.00     0.010 A 
HETATM   31  C11 UNL     1       1.192  53.666 -19.986  1.00  0.00     0.019 A 
HETATM   32  C12 UNL     1       0.792  53.104 -21.204  1.00  0.00     0.037 A 
HETATM   33  C14 UNL     1       0.121  51.876 -21.213  1.00  0.00     0.019 A 
HETATM   34  C15 UNL     1      -0.147  51.214 -20.011  1.00  0.00     0.010 A 
BRANCH  32  35
HETATM   35  C13 UNL     1       1.099  53.843 -22.452  1.00  0.00     0.176 C 
HETATM   36  O3  UNL     1       0.767  53.517 -23.577  1.00  0.00    -0.646 OA
BRANCH  35  37
HETATM   37  O4  UNL     1       1.807  54.965 -22.233  1.00  0.00    -0.773 OA
HETATM   38  H15 UNL     1       1.924  55.344 -23.130  1.00  0.00     0.167 HD
ENDBRANCH  35  37
ENDBRANCH  32  35
ENDBRANCH  28  29
ENDBRANCH  26  28
ENDBRANCH  23  24
ENDBRANCH  22  23
ENDBRANCH   6  22
BRANCH  14  39
HETATM   39  O5  UNL     1       4.143  56.271  -8.432  1.00  0.00    -0.395 OA
HETATM   40  H26 UNL     1       5.048  56.271  -8.076  1.00  0.00     0.210 HD
ENDBRANCH  14  39
BRANCH  21  41
HETATM   41  O6  UNL     1       1.636  55.245  -3.938  1.00  0.00    -0.381 OA
HETATM   42  H37 UNL     1       2.522  54.858  -3.788  1.00  0.00     0.211 HD
ENDBRANCH  21  41
BRANCH  21  43
HETATM   43  C30 UNL     1       2.738  57.383  -3.517  1.00  0.00     0.184 C 
HETATM   44  O7  UNL     1       3.924  57.109  -3.325  1.00  0.00    -0.292 OA
BRANCH  43  45
HETATM   45  C31 UNL     1       2.106  58.555  -2.770  1.00  0.00     0.245 C 
BRANCH  45  46
HETATM   46  O8  UNL     1       2.712  59.802  -3.070  1.00  0.00    -0.393 OA
HETATM   47  H40 UNL     1       3.577  59.803  -2.614  1.00  0.00     0.209 HD
ENDBRANCH  45  46
ENDBRANCH  43  45
ENDBRANCH  21  43
TORSDOF 12
ENDMDL
