MODEL 1
REMARK minimizedAffinity -7.03968716
REMARK CNNscore 0.682982981
REMARK CNNaffinity 5.88190985
REMARK  5 active torsions:
REMARK  status: ('A' for Active; 'I' for Inactive)
REMARK    1  A    between atoms: C2_2  and  C4_4 
REMARK    2  A    between atoms: C7_7  and  C8_8 
REMARK    3  A    between atoms: C8_8  and  O2_10 
REMARK    4  A    between atoms: C11_13  and  C12_14 
REMARK    5  A    between atoms: C12_14  and  O4_16 
ROOT
HETATM    1  C4  UNL     1     -16.689  45.799 -22.854  1.00  0.00     0.019 C 
HETATM    2  C5  UNL     1     -17.283  44.385 -22.828  1.00  0.00     0.011 C 
HETATM    3  C6  UNL     1     -18.157  44.262 -24.080  1.00  0.00     0.021 C 
HETATM    4  C7  UNL     1     -17.936  45.535 -24.921  1.00  0.00     0.050 C 
HETATM    5  C9  UNL     1     -17.815  45.213 -26.419  1.00  0.00     0.022 C 
HETATM    6  C10 UNL     1     -16.537  44.506 -26.903  1.00  0.00     0.023 C 
HETATM    7  C11 UNL     1     -15.231  44.664 -26.035  1.00  0.00     0.057 C 
HETATM    8  C13 UNL     1     -15.426  46.030 -25.302  1.00  0.00     0.011 C 
HETATM    9  C14 UNL     1     -14.118  46.619 -24.827  1.00  0.00     0.007 C 
HETATM   10  C15 UNL     1     -13.235  46.967 -26.022  1.00  0.00     0.006 C 
HETATM   11  C16 UNL     1     -13.373  46.084 -27.313  1.00  0.00     0.003 C 
HETATM   12  C17 UNL     1     -12.035  46.186 -28.195  1.00  0.00    -0.035 C 
HETATM   13  C18 UNL     1     -12.329  45.668 -29.626  1.00  0.00     0.016 C 
HETATM   14  C19 UNL     1     -11.583  47.673 -28.349  1.00  0.00     0.017 C 
HETATM   15  C20 UNL     1     -10.236  47.847 -29.042  1.00  0.00     0.080 C 
HETATM   16  C21 UNL     1      -9.156  47.018 -28.385  1.00  0.00     0.135 C 
HETATM   17  O5  UNL     1      -8.052  47.520 -28.162  1.00  0.00    -0.297 OA
HETATM   18  C22 UNL     1      -9.453  45.530 -28.112  1.00  0.00     0.017 C 
HETATM   19  C23 UNL     1      -9.260  44.751 -29.419  1.00  0.00     0.023 C 
HETATM   20  C24 UNL     1      -8.384  45.011 -27.116  1.00  0.00     0.023 C 
HETATM   21  C25 UNL     1     -10.877  45.418 -27.460  1.00  0.00     0.009 C 
HETATM   22  C26 UNL     1     -11.297  43.988 -27.071  1.00  0.00     0.007 C 
HETATM   23  C27 UNL     1     -12.614  43.937 -26.269  1.00  0.00     0.011 C 
HETATM   24  C28 UNL     1     -13.847  44.614 -26.959  1.00  0.00    -0.022 C 
HETATM   25  C29 UNL     1     -14.159  43.723 -28.199  1.00  0.00     0.017 C 
HETATM   26  C30 UNL     1     -16.657  46.211 -24.354  1.00  0.00     0.018 C 
ENDROOT
BRANCH   4  27
HETATM   27  C8  UNL     1     -19.133  46.494 -24.769  1.00  0.00     0.149 C 
HETATM   28  O1  UNL     1     -19.090  47.718 -24.771  1.00  0.00    -0.649 OA
BRANCH  27  29
HETATM   29  O2  UNL     1     -20.322  45.881 -24.592  1.00  0.00    -0.776 OA
HETATM   30  H11 UNL     1     -20.955  46.625 -24.508  1.00  0.00     0.167 HD
ENDBRANCH  27  29
ENDBRANCH   4  27
BRANCH   1  31
HETATM   31  C2  UNL     1     -15.515  46.129 -21.951  1.00  0.00    -0.088 C 
HETATM   32  C1  UNL     1     -15.067  47.368 -21.686  1.00  0.00     0.014 C 
HETATM   33  C3  UNL     1     -14.743  44.939 -21.432  1.00  0.00     0.043 C 
ENDBRANCH   1  31
BRANCH   7  34
HETATM   34  C12 UNL     1     -15.159  43.447 -25.108  1.00  0.00     0.149 C 
HETATM   35  O3  UNL     1     -15.746  42.385 -25.249  1.00  0.00    -0.649 OA
BRANCH  34  36
HETATM   36  O4  UNL     1     -14.284  43.566 -24.099  1.00  0.00    -0.776 OA
HETATM   37  H16 UNL     1     -14.310  42.691 -23.661  1.00  0.00     0.167 HD
ENDBRANCH  34  36
ENDBRANCH   7  34
TORSDOF 5
ENDMDL
