MODEL 1
REMARK minimizedAffinity -9.63339233
REMARK  7 active torsions:
REMARK  status: ('A' for Active; 'I' for Inactive)
REMARK    1  A    between atoms: C2_2  and  C30_32 
REMARK    2  A    between atoms: C3_3  and  C4_4 
REMARK    3  A    between atoms: C4_4  and  O1_5 
REMARK    4  A    between atoms: C4_4  and  C5_6 
REMARK    5  A    between atoms: C5_6  and  C6_7 
REMARK    6  A    between atoms: C6_7  and  C8_9 
REMARK    7  A    between atoms: C30_32  and  O3_33 
ROOT
HETATM    1  C8  UNL     1      -3.541   6.039  13.630  1.00  0.00    -0.002 C 
HETATM    2  C9  UNL     1      -3.161   4.859  12.726  1.00  0.00     0.006 C 
HETATM    3  C10 UNL     1      -1.726   4.567  13.113  1.00  0.00     0.011 C 
HETATM    4  C11 UNL     1      -1.040   5.949  13.139  1.00  0.00    -0.032 C 
HETATM    5  C12 UNL     1       0.214   5.834  14.029  1.00  0.00     0.016 C 
HETATM    6  C13 UNL     1      -0.641   6.436  11.689  1.00  0.00     0.004 C 
HETATM    7  C14 UNL     1       0.222   5.505  10.823  1.00  0.00     0.007 C 
HETATM    8  C15 UNL     1       1.730   5.573  10.997  1.00  0.00     0.007 C 
HETATM    9  C16 UNL     1       2.356   6.915  11.419  1.00  0.00     0.010 C 
HETATM   10  C17 UNL     1       3.651   7.289  10.618  1.00  0.00     0.018 C 
HETATM   11  C18 UNL     1       3.396   7.502   9.116  1.00  0.00     0.023 C 
HETATM   12  C19 UNL     1       4.736   6.216  10.819  1.00  0.00     0.023 C 
HETATM   13  C20 UNL     1       4.226   8.604  11.166  1.00  0.00     0.135 C 
HETATM   14  O2  UNL     1       5.230   9.132  10.680  1.00  0.00    -0.297 OA
HETATM   15  C21 UNL     1       3.580   9.189  12.394  1.00  0.00     0.080 C 
HETATM   16  C22 UNL     1       2.078   9.328  12.209  1.00  0.00     0.018 C 
HETATM   17  C23 UNL     1       1.421   8.117  11.534  1.00  0.00    -0.026 A 
HETATM   18  C24 UNL     1       0.437   8.446  10.430  1.00  0.00     0.021 A 
HETATM   19  C25 UNL     1      -0.089   7.867  11.728  1.00  0.00    -0.027 A 
HETATM   20  C26 UNL     1      -0.887   8.800  12.626  1.00  0.00     0.011 C 
HETATM   21  C27 UNL     1      -2.273   8.236  12.933  1.00  0.00     0.011 C 
HETATM   22  C28 UNL     1      -2.204   6.903  13.728  1.00  0.00    -0.032 C 
HETATM   23  C29 UNL     1      -1.983   7.240  15.225  1.00  0.00     0.016 C 
ENDROOT
BRANCH   1  24
HETATM   24  C6  UNL     1      -4.882   6.734  13.219  1.00  0.00    -0.011 C 
HETATM   25  C7  UNL     1      -4.776   8.259  13.348  1.00  0.00     0.010 C 
BRANCH  24  26
HETATM   26  C5  UNL     1      -6.076   6.215  14.074  1.00  0.00     0.040 C 
BRANCH  26  27
HETATM   27  C4  UNL     1      -7.036   5.248  13.355  1.00  0.00     0.141 C 
BRANCH  27  28
HETATM   28  C3  UNL     1      -6.283   4.389  12.372  1.00  0.00     0.009 C 
HETATM   29  C2  UNL     1      -6.445   3.075  12.104  1.00  0.00    -0.062 C 
HETATM   30  C1  UNL     1      -7.456   2.175  12.765  1.00  0.00     0.045 C 
BRANCH  29  31
HETATM   31  C30 UNL     1      -5.577   2.390  11.081  1.00  0.00     0.198 C 
BRANCH  31  32
HETATM   32  O3  UNL     1      -6.079   1.080  10.866  1.00  0.00    -0.397 OA
HETATM   33  H48 UNL     1      -5.515   0.671  10.187  1.00  0.00     0.209 HD
ENDBRANCH  31  32
ENDBRANCH  29  31
ENDBRANCH  27  28
BRANCH  27  34
HETATM   34  O1  UNL     1      -8.017   6.003  12.649  1.00  0.00    -0.392 OA
HETATM   35  H6  UNL     1      -7.969   5.768  11.704  1.00  0.00     0.210 HD
ENDBRANCH  27  34
ENDBRANCH  26  27
ENDBRANCH  24  26
ENDBRANCH   1  24
TORSDOF 7
ENDMDL
