MODEL 1
REMARK minimizedAffinity -8.21385956
REMARK CNNscore 0.371483058
REMARK CNNaffinity 7.33958626
REMARK  11 active torsions:
REMARK  status: ('A' for Active; 'I' for Inactive)
REMARK    1  A    between atoms: C19_20  and  O2_21 
REMARK    2  A    between atoms: C19_20  and  C20_22 
REMARK    3  A    between atoms: C20_22  and  C21_24 
REMARK    4  A    between atoms: C21_24  and  O4_25 
REMARK    5  A    between atoms: O4_25  and  C22_26 
REMARK    6  A    between atoms: C22_26  and  C23_28 
REMARK    7  A    between atoms: C23_28  and  C24_29 
REMARK    8  A    between atoms: C24_29  and  C25_30 
REMARK       I    between atoms: C25_30  and  N1_32 
REMARK    9  A    between atoms: N1_32  and  C26_33 
REMARK   10  A    between atoms: C26_33  and  C27_34 
REMARK   11  A    between atoms: C27_34  and  C28_35 
ROOT
HETATM    1  C20 UNL     1      -0.777   7.130  13.081  1.00  0.00     0.185 C 
HETATM    2  O3  UNL     1      -0.338   7.631  12.043  1.00  0.00    -0.292 OA
ENDROOT
BRANCH   1   3
HETATM    3  C19 UNL     1      -1.729   7.865  14.046  1.00  0.00     0.128 C 
HETATM    4  C14 UNL     1      -1.230   9.152  14.793  1.00  0.00    -0.002 C 
HETATM    5  C13 UNL     1      -1.263  10.481  14.007  1.00  0.00     0.013 C 
HETATM    6  C15 UNL     1       0.198   8.976  15.376  1.00  0.00     0.019 C 
HETATM    7  C16 UNL     1      -2.298   9.200  15.917  1.00  0.00     0.002 C 
HETATM    8  C12 UNL     1      -2.141  11.572  14.649  1.00  0.00     0.007 C 
HETATM    9  C11 UNL     1      -1.933  11.720  16.184  1.00  0.00     0.002 C 
HETATM   10  C2  UNL     1      -2.630  13.003  16.850  1.00  0.00    -0.016 C 
HETATM   11  C10 UNL     1      -2.099  10.342  16.925  1.00  0.00    -0.004 C 
HETATM   12  C1  UNL     1      -1.492  13.931  17.358  1.00  0.00     0.020 C 
HETATM   13  C3  UNL     1      -3.487  13.802  15.826  1.00  0.00     0.022 C 
HETATM   14  C7  UNL     1      -3.518  12.687  18.057  1.00  0.00    -0.068 C 
HETATM   15  C4  UNL     1      -4.252  14.982  16.413  1.00  0.00     0.084 C 
HETATM   16  C5  UNL     1      -5.053  14.572  17.618  1.00  0.00     0.149 C 
HETATM   17  O1  UNL     1      -6.029  15.211  18.001  1.00  0.00    -0.293 OA
HETATM   18  C6  UNL     1      -4.618  13.387  18.389  1.00  0.00     0.053 C 
HETATM   19  C8  UNL     1      -3.134  11.501  18.892  1.00  0.00     0.035 C 
HETATM   20  C9  UNL     1      -3.193  10.285  17.996  1.00  0.00     0.010 C 
HETATM   21  C17 UNL     1      -2.330   7.770  16.452  1.00  0.00     0.009 C 
HETATM   22  C18 UNL     1      -2.102   6.899  15.209  1.00  0.00     0.047 C 
BRANCH   3  23
HETATM   23  O2  UNL     1      -2.955   8.138  13.344  1.00  0.00    -0.381 OA
HETATM   24  H27 UNL     1      -2.792   8.826  12.676  1.00  0.00     0.211 HD
ENDBRANCH   3  23
ENDBRANCH   1   3
BRANCH   1  25
HETATM   25  C21 UNL     1      -0.350   5.721  13.519  1.00  0.00     0.260 C 
BRANCH  25  26
HETATM   26  O4  UNL     1      -1.379   4.749  13.348  1.00  0.00    -0.314 OA
BRANCH  26  27
HETATM   27  C22 UNL     1      -2.115   4.918  12.210  1.00  0.00     0.259 C 
HETATM   28  O5  UNL     1      -3.165   5.547  12.144  1.00  0.00    -0.265 OA
BRANCH  27  29
HETATM   29  C23 UNL     1      -1.427   4.258  11.043  1.00  0.00     0.120 C 
BRANCH  29  30
HETATM   30  C24 UNL     1      -1.634   2.745  11.083  1.00  0.00     0.112 C 
BRANCH  30  31
HETATM   31  C25 UNL     1      -3.080   2.353  11.313  1.00  0.00     0.218 C 
HETATM   32  O6  UNL     1      -3.416   1.324  11.884  1.00  0.00    -0.274 OA
HETATM   33  N1  UNL     1      -3.975   3.232  10.731  1.00  0.00    -0.361 N 
HETATM   34  H34 UNL     1      -3.621   4.141  10.465  1.00  0.00     0.162 HD
BRANCH  33  35
HETATM   35  C26 UNL     1      -5.401   3.140  11.006  1.00  0.00     0.127 C 
BRANCH  35  36
HETATM   36  C27 UNL     1      -5.712   3.071  12.508  1.00  0.00     0.060 C 
BRANCH  36  37
HETATM   37  C28 UNL     1      -6.816   3.996  12.919  1.00  0.00    -0.029 A 
HETATM   38  C29 UNL     1      -8.164   3.810  12.678  1.00  0.00     0.096 A 
HETATM   39  N2  UNL     1      -8.854   4.810  13.303  1.00  0.00    -0.365 N 
HETATM   40  C30 UNL     1      -7.985   5.680  13.916  1.00  0.00     0.042 A 
HETATM   41  H40 UNL     1      -9.861   4.882  13.342  1.00  0.00     0.165 HD
HETATM   42  C31 UNL     1      -8.246   6.836  14.661  1.00  0.00     0.030 A 
HETATM   43  C35 UNL     1      -6.693   5.205  13.682  1.00  0.00    -0.002 A 
HETATM   44  C32 UNL     1      -7.153   7.533  15.182  1.00  0.00     0.002 A 
HETATM   45  C33 UNL     1      -5.850   7.089  14.961  1.00  0.00     0.001 A 
HETATM   46  C34 UNL     1      -5.605   5.927  14.218  1.00  0.00     0.014 A 
ENDBRANCH  36  37
ENDBRANCH  35  36
ENDBRANCH  33  35
ENDBRANCH  30  31
ENDBRANCH  29  30
ENDBRANCH  27  29
ENDBRANCH  26  27
ENDBRANCH  25  26
ENDBRANCH   1  25
TORSDOF 11
ENDMDL
