MODEL 1
REMARK minimizedAffinity -8.47034073
REMARK  12 active torsions:
REMARK  status: ('A' for Active; 'I' for Inactive)
REMARK    1  A    between atoms: C2_2  and  C3_3 
REMARK    2  A    between atoms: C2_2  and  C13_14 
REMARK    3  A    between atoms: C3_3  and  C4_4 
REMARK    4  A    between atoms: C4_4  and  C5_5 
REMARK    5  A    between atoms: C13_14  and  C14_15 
REMARK    6  A    between atoms: C14_15  and  O2_16 
REMARK    7  A    between atoms: C14_15  and  C15_17 
REMARK    8  A    between atoms: C16_18  and  C18_20 
REMARK    9  A    between atoms: C18_20  and  C19_21 
REMARK       I    between atoms: C19_21  and  N1_23 
REMARK   10  A    between atoms: N1_23  and  C20_24 
REMARK   11  A    between atoms: C20_24  and  C21_25 
REMARK   12  A    between atoms: C21_25  and  C22_26 
ROOT
HETATM    1  C14 UNL     1      -0.022   8.303   9.028  1.00  0.00     0.145 C 
ENDROOT
BRANCH   1   2
HETATM    2  C13 UNL     1       1.386   8.521   8.422  1.00  0.00     0.069 C 
BRANCH   2   3
HETATM    3  C2  UNL     1       2.124   7.290   7.914  1.00  0.00    -0.086 C 
HETATM    4  C1  UNL     1       1.943   6.861   6.652  1.00  0.00     0.014 C 
BRANCH   3   5
HETATM    5  C3  UNL     1       3.070   6.562   8.849  1.00  0.00     0.034 C 
BRANCH   5   6
HETATM    6  C4  UNL     1       3.955   7.469   9.718  1.00  0.00     0.010 C 
BRANCH   6   7
HETATM    7  C5  UNL     1       4.455   6.850  11.053  1.00  0.00     0.001 C 
HETATM    8  C6  UNL     1       3.387   7.092  12.150  1.00  0.00     0.006 C 
HETATM    9  C7  UNL     1       3.609   8.400  12.889  1.00  0.00     0.008 C 
HETATM   10  C8  UNL     1       4.902   8.351  13.687  1.00  0.00     0.079 C 
HETATM   11  C9  UNL     1       5.947   7.464  13.042  1.00  0.00     0.135 C 
HETATM   12  O1  UNL     1       6.844   6.980  13.735  1.00  0.00    -0.297 OA
HETATM   13  C10 UNL     1       5.900   7.287  11.512  1.00  0.00     0.017 C 
HETATM   14  C11 UNL     1       6.404   8.620  10.924  1.00  0.00     0.023 C 
HETATM   15  C12 UNL     1       6.914   6.190  11.124  1.00  0.00     0.023 C 
ENDBRANCH   6   7
ENDBRANCH   5   6
ENDBRANCH   3   5
ENDBRANCH   2   3
ENDBRANCH   1   2
BRANCH   1  16
HETATM   16  O2  UNL     1      -0.931   9.332   8.642  1.00  0.00    -0.391 OA
HETATM   17  H23 UNL     1      -0.730   9.557   7.718  1.00  0.00     0.210 HD
ENDBRANCH   1  16
BRANCH   1  18
HETATM   18  C15 UNL     1      -0.043   8.231  10.530  1.00  0.00     0.007 C 
HETATM   19  C16 UNL     1      -0.083   7.120  11.294  1.00  0.00    -0.076 C 
HETATM   20  C17 UNL     1      -0.036   5.717  10.748  1.00  0.00     0.043 C 
BRANCH  19  21
HETATM   21  C18 UNL     1      -0.146   7.218  12.805  1.00  0.00     0.136 C 
BRANCH  21  22
HETATM   22  C19 UNL     1      -1.234   6.305  13.364  1.00  0.00     0.221 C 
HETATM   23  O3  UNL     1      -0.993   5.397  14.157  1.00  0.00    -0.273 OA
HETATM   24  N1  UNL     1      -2.497   6.580  12.888  1.00  0.00    -0.361 N 
HETATM   25  H30 UNL     1      -2.577   7.154  12.056  1.00  0.00     0.162 HD
BRANCH  24  26
HETATM   26  C20 UNL     1      -3.624   5.714  13.189  1.00  0.00     0.127 C 
BRANCH  26  27
HETATM   27  C21 UNL     1      -3.719   4.516  12.236  1.00  0.00     0.058 C 
BRANCH  27  28
HETATM   28  C22 UNL     1      -5.034   3.782  12.366  1.00  0.00    -0.057 A 
HETATM   29  C23 UNL     1      -6.016   4.238  13.256  1.00  0.00     0.007 A 
HETATM   30  C24 UNL     1      -7.214   3.539  13.408  1.00  0.00     0.001 A 
HETATM   31  C25 UNL     1      -7.445   2.383  12.667  1.00  0.00     0.000 A 
HETATM   32  C26 UNL     1      -6.477   1.922  11.775  1.00  0.00     0.001 A 
HETATM   33  C27 UNL     1      -5.275   2.617  11.628  1.00  0.00     0.007 A 
ENDBRANCH  27  28
ENDBRANCH  26  27
ENDBRANCH  24  26
ENDBRANCH  21  22
ENDBRANCH  19  21
ENDBRANCH   1  18
TORSDOF 12
ENDMDL
