MODEL 1
REMARK minimizedAffinity -6.74336863
REMARK CNNscore 0.468901724
REMARK CNNaffinity 6.11157942
REMARK  13 active torsions:
REMARK  status: ('A' for Active; 'I' for Inactive)
REMARK    1  A    between atoms: C2_2  and  C3_3 
REMARK    2  A    between atoms: C2_2  and  C14_14 
REMARK    3  A    between atoms: C4_4  and  C5_5 
REMARK    4  A    between atoms: C6_6  and  C8_8 
REMARK    5  A    between atoms: C8_8  and  C9_9 
REMARK    6  A    between atoms: C9_9  and  C10_10 
REMARK    7  A    between atoms: C18_18  and  C19_19 
REMARK    8  A    between atoms: C19_19  and  C20_20 
REMARK    9  A    between atoms: C20_20  and  C21_21 
REMARK   10  A    between atoms: C21_21  and  O1_22 
REMARK   11  A    between atoms: C23_24  and  C25_26 
REMARK   12  A    between atoms: C28_30  and  O3_32 
REMARK   13  A    between atoms: C30_33  and  O4_34 
ROOT
HETATM    1  C14 UNL     1      13.248  -3.826   3.581  1.00  0.00     0.047 C 
HETATM    2  C15 UNL     1      11.864  -3.851   4.241  1.00  0.00     0.013 C 
HETATM    3  C16 UNL     1      11.676  -5.335   4.531  1.00  0.00     0.017 C 
HETATM    4  C17 UNL     1      13.070  -5.873   5.005  1.00  0.00     0.024 C 
HETATM    5  C18 UNL     1      13.100  -6.201   6.562  1.00  0.00     0.029 C 
HETATM    6  C22 UNL     1      14.466  -6.826   6.971  1.00  0.00    -0.066 C 
HETATM    7  C23 UNL     1      15.406  -6.402   7.859  1.00  0.00    -0.021 C 
HETATM    8  C24 UNL     1      16.601  -7.224   8.288  1.00  0.00     0.052 C 
HETATM    9  C26 UNL     1      14.694  -8.120   6.196  1.00  0.00     0.038 C 
HETATM   10  C27 UNL     1      14.710  -7.844   4.698  1.00  0.00     0.042 C 
HETATM   11  C28 UNL     1      13.404  -7.200   4.195  1.00  0.00     0.065 C 
HETATM   12  C29 UNL     1      12.274  -8.258   4.225  1.00  0.00     0.047 C 
HETATM   13  C30 UNL     1      14.053  -4.715   4.568  1.00  0.00     0.138 C 
ENDROOT
BRANCH   5  14
HETATM   14  C19 UNL     1      12.439  -5.141   7.491  1.00  0.00     0.012 C 
BRANCH  14  15
HETATM   15  C20 UNL     1      11.311  -5.712   8.371  1.00  0.00     0.027 C 
BRANCH  15  16
HETATM   16  C21 UNL     1      11.809  -6.142   9.747  1.00  0.00     0.164 C 
BRANCH  16  17
HETATM   17  O1  UNL     1      10.905  -7.034  10.382  1.00  0.00    -0.401 OA
HETATM   18  H32 UNL     1      10.854  -7.834   9.833  1.00  0.00     0.209 HD
ENDBRANCH  16  17
ENDBRANCH  15  16
ENDBRANCH  14  15
ENDBRANCH   5  14
BRANCH  11  19
HETATM   19  O3  UNL     1      13.599  -6.879   2.807  1.00  0.00    -0.389 OA
HETATM   20  H44 UNL     1      13.853  -7.697   2.343  1.00  0.00     0.210 HD
ENDBRANCH  11  19
BRANCH  13  21
HETATM   21  O4  UNL     1      14.493  -3.943   5.683  1.00  0.00    -0.394 OA
HETATM   22  H46 UNL     1      14.954  -3.161   5.330  1.00  0.00     0.210 HD
ENDBRANCH  13  21
BRANCH   1  23
HETATM   23  C2  UNL     1      13.847  -2.458   3.255  1.00  0.00    -0.061 C 
HETATM   24  C1  UNL     1      13.471  -1.328   3.881  1.00  0.00     0.019 C 
BRANCH  23  25
HETATM   25  C3  UNL     1      14.865  -2.352   2.210  1.00  0.00     0.007 C 
HETATM   26  C4  UNL     1      14.688  -2.491   0.886  1.00  0.00     0.001 C 
BRANCH  26  27
HETATM   27  C5  UNL     1      15.792  -2.427  -0.053  1.00  0.00     0.002 C 
HETATM   28  C6  UNL     1      16.217  -3.416  -0.862  1.00  0.00    -0.084 C 
HETATM   29  C7  UNL     1      15.571  -4.772  -0.984  1.00  0.00     0.043 C 
BRANCH  28  30
HETATM   30  C8  UNL     1      17.431  -3.200  -1.750  1.00  0.00     0.037 C 
BRANCH  30  31
HETATM   31  C9  UNL     1      17.063  -2.641  -3.128  1.00  0.00     0.031 C 
BRANCH  31  32
HETATM   32  C10 UNL     1      17.875  -3.275  -4.226  1.00  0.00    -0.024 C 
HETATM   33  C11 UNL     1      18.843  -2.692  -4.959  1.00  0.00    -0.091 C 
HETATM   34  C12 UNL     1      19.330  -1.281  -4.769  1.00  0.00     0.042 C 
HETATM   35  C13 UNL     1      19.542  -3.447  -6.055  1.00  0.00     0.042 C 
ENDBRANCH  31  32
ENDBRANCH  30  31
ENDBRANCH  28  30
ENDBRANCH  26  27
ENDBRANCH  23  25
ENDBRANCH   1  23
BRANCH   7  36
HETATM   36  C25 UNL     1      15.403  -5.062   8.517  1.00  0.00     0.265 C 
HETATM   37  O2  UNL     1      15.335  -4.909   9.734  1.00  0.00    -0.302 OA
ENDBRANCH   7  36
TORSDOF 13
ENDMDL
