MODEL 1
REMARK minimizedAffinity -9.06188202
REMARK  11 active torsions:
REMARK  status: ('A' for Active; 'I' for Inactive)
REMARK    1  A    between atoms: C1_2  and  C2_3 
REMARK    2  A    between atoms: C1_2  and  O4_13 
REMARK    3  A    between atoms: C3_4  and  C4_5 
REMARK    4  A    between atoms: C7_8  and  O2_9 
REMARK    5  A    between atoms: C8_10  and  O3_11 
REMARK    6  A    between atoms: O4_13  and  C10_14 
REMARK    7  A    between atoms: C12_16  and  O5_17 
REMARK    8  A    between atoms: C12_16  and  C13_18 
REMARK    9  A    between atoms: C13_18  and  O7_20 
REMARK   10  A    between atoms: C15_22  and  O8_23 
REMARK   11  A    between atoms: C16_24  and  O9_25 
ROOT
HETATM    1  C10 UNL     1      -1.321  51.120 -26.132  1.00  0.00     0.166 C 
HETATM    2  C11 UNL     1       0.185  50.863 -26.002  1.00  0.00     0.084 C 
HETATM    3  C12 UNL     1       1.002  51.699 -26.988  1.00  0.00     0.147 C 
HETATM    4  C14 UNL     1       0.693  53.193 -26.842  1.00  0.00     0.083 C 
HETATM    5  C15 UNL     1      -0.804  53.476 -26.974  1.00  0.00     0.152 C 
HETATM    6  C16 UNL     1      -1.640  52.621 -26.010  1.00  0.00     0.176 C 
ENDROOT
BRANCH   1   7
HETATM    7  O4  UNL     1      -2.007  50.434 -25.059  1.00  0.00    -0.310 OA
BRANCH   7   8
HETATM    8  C1  UNL     1      -2.933  51.161 -24.389  1.00  0.00     0.283 C 
HETATM    9  O1  UNL     1      -4.108  51.294 -24.685  1.00  0.00    -0.260 OA
BRANCH   8  10
HETATM   10  C2  UNL     1      -2.276  51.760 -23.210  1.00  0.00     0.083 C 
HETATM   11  C3  UNL     1      -1.400  51.040 -22.495  1.00  0.00     0.017 C 
BRANCH  11  12
HETATM   12  C4  UNL     1      -0.709  51.540 -21.300  1.00  0.00    -0.033 A 
HETATM   13  C5  UNL     1      -0.825  50.908 -20.049  1.00  0.00     0.014 A 
HETATM   14  C6  UNL     1      -0.178  51.425 -18.924  1.00  0.00     0.040 A 
HETATM   15  C7  UNL     1       0.579  52.579 -19.051  1.00  0.00     0.098 A 
HETATM   16  C8  UNL     1       0.693  53.225 -20.278  1.00  0.00     0.099 A 
HETATM   17  C9  UNL     1       0.050  52.717 -21.403  1.00  0.00     0.050 A 
BRANCH  15  18
HETATM   18  O2  UNL     1       1.211  53.085 -17.951  1.00  0.00    -0.358 OA
HETATM   19  H5  UNL     1       1.671  53.884 -18.281  1.00  0.00     0.217 HD
ENDBRANCH  15  18
BRANCH  16  20
HETATM   20  O3  UNL     1       1.452  54.362 -20.329  1.00  0.00    -0.358 OA
HETATM   21  H6  UNL     1       1.448  54.689 -21.245  1.00  0.00     0.217 HD
ENDBRANCH  16  20
ENDBRANCH  11  12
ENDBRANCH   8  10
ENDBRANCH   7   8
ENDBRANCH   1   7
BRANCH   6  22
HETATM   22  O9  UNL     1      -3.030  52.841 -26.292  1.00  0.00    -0.390 OA
HETATM   23  H18 UNL     1      -3.084  52.956 -27.264  1.00  0.00     0.210 HD
ENDBRANCH   6  22
BRANCH   3  24
HETATM   24  O5  UNL     1       0.637  51.315 -28.323  1.00  0.00    -0.379 OA
HETATM   25  H11 UNL     1       1.188  50.532 -28.534  1.00  0.00     0.211 HD
ENDBRANCH   3  24
BRANCH   3  26
HETATM   26  C13 UNL     1       2.496  51.448 -26.733  1.00  0.00     0.176 C 
HETATM   27  O6  UNL     1       2.988  50.670 -25.935  1.00  0.00    -0.648 OA
BRANCH  26  28
HETATM   28  O7  UNL     1       3.277  52.184 -27.557  1.00  0.00    -0.774 OA
HETATM   29  H12 UNL     1       4.193  51.936 -27.306  1.00  0.00     0.167 HD
ENDBRANCH  26  28
ENDBRANCH   3  26
BRANCH   5  30
HETATM   30  O8  UNL     1      -1.258  53.235 -28.315  1.00  0.00    -0.393 OA
HETATM   31  H16 UNL     1      -0.707  52.513 -28.691  1.00  0.00     0.210 HD
ENDBRANCH   5  30
TORSDOF 11
ENDMDL
