MODEL 1
REMARK minimizedAffinity -8.48521805
REMARK CNNscore 0.515285432
REMARK CNNaffinity 7.34421587
REMARK  13 active torsions:
REMARK  status: ('A' for Active; 'I' for Inactive)
REMARK    1  A    between atoms: O1_2  and  C2_3 
REMARK    2  A    between atoms: C12_14  and  C13_15 
REMARK    3  A    between atoms: C13_15  and  C15_17 
REMARK    4  A    between atoms: C15_17  and  C16_18 
REMARK    5  A    between atoms: C17_19  and  C18_20 
REMARK    6  A    between atoms: C18_20  and  O3_23 
REMARK    7  A    between atoms: C28_31  and  O4_32 
REMARK    8  A    between atoms: O4_32  and  C29_33 
REMARK    9  A    between atoms: C30_35  and  C31_36 
REMARK   10  A    between atoms: C31_36  and  O6_37 
REMARK   11  A    between atoms: C32_38  and  O7_39 
REMARK   12  A    between atoms: C33_40  and  O8_41 
REMARK   13  A    between atoms: C34_42  and  O9_43 
ROOT
HETATM    1  C2  UNL     1      -6.796  48.807 -20.991  1.00  0.00     0.270 C 
HETATM    2  O2  UNL     1      -7.356  47.484 -20.816  1.00  0.00    -0.344 OA
HETATM    3  C3  UNL     1      -6.389  46.511 -21.286  1.00  0.00     0.095 C 
HETATM    4  C4  UNL     1      -5.544  46.233 -20.051  1.00  0.00     0.008 C 
HETATM    5  C5  UNL     1      -4.564  47.053 -19.654  1.00  0.00    -0.021 C 
HETATM    6  C6  UNL     1      -4.305  48.360 -20.357  1.00  0.00     0.030 C 
HETATM    7  C7  UNL     1      -5.338  48.633 -21.548  1.00  0.00     0.024 C 
HETATM    8  C8  UNL     1      -4.936  49.913 -22.350  1.00  0.00     0.016 C 
HETATM    9  C9  UNL     1      -3.440  50.128 -22.638  1.00  0.00     0.011 C 
HETATM   10  C10 UNL     1      -2.607  50.000 -21.358  1.00  0.00    -0.032 C 
HETATM   11  C11 UNL     1      -3.057  51.130 -20.383  1.00  0.00     0.016 C 
HETATM   12  C12 UNL     1      -1.062  50.028 -21.527  1.00  0.00    -0.002 C 
HETATM   13  C21 UNL     1      -0.553  49.320 -20.239  1.00  0.00     0.006 C 
HETATM   14  C22 UNL     1      -1.766  48.555 -19.645  1.00  0.00     0.011 C 
HETATM   15  C23 UNL     1      -2.813  48.545 -20.780  1.00  0.00    -0.029 C 
HETATM   16  C24 UNL     1      -2.372  47.390 -21.743  1.00  0.00     0.016 C 
HETATM   17  C25 UNL     1      -5.610  47.325 -22.353  1.00  0.00     0.039 C 
HETATM   18  C26 UNL     1      -6.425  47.547 -23.655  1.00  0.00     0.011 C 
HETATM   19  C27 UNL     1      -7.725  46.762 -23.746  1.00  0.00     0.033 C 
HETATM   20  C28 UNL     1      -7.499  45.320 -23.334  1.00  0.00     0.136 C 
HETATM   21  C35 UNL     1      -7.096  45.200 -21.823  1.00  0.00     0.014 C 
HETATM   22  C36 UNL     1      -6.159  43.959 -21.756  1.00  0.00     0.021 C 
HETATM   23  C37 UNL     1      -8.332  44.879 -20.943  1.00  0.00     0.021 C 
ENDROOT
BRANCH  20  24
HETATM   24  O4  UNL     1      -8.643  44.494 -23.602  1.00  0.00    -0.352 OA
BRANCH  24  25
HETATM   25  C29 UNL     1      -8.469  43.551 -24.657  1.00  0.00     0.292 C 
HETATM   26  O5  UNL     1      -9.203  43.937 -25.820  1.00  0.00    -0.348 OA
HETATM   27  C30 UNL     1     -10.626  44.039 -25.638  1.00  0.00     0.179 C 
HETATM   28  C32 UNL     1     -11.183  43.121 -24.535  1.00  0.00     0.180 C 
HETATM   29  C33 UNL     1     -10.366  41.837 -24.522  1.00  0.00     0.183 C 
HETATM   30  C34 UNL     1      -8.900  42.139 -24.181  1.00  0.00     0.204 C 
BRANCH  27  31
HETATM   31  C31 UNL     1     -11.077  45.489 -25.416  1.00  0.00     0.198 C 
BRANCH  31  32
HETATM   32  O6  UNL     1     -10.377  46.411 -26.247  1.00  0.00    -0.398 OA
HETATM   33  H48 UNL     1     -10.051  45.926 -27.036  1.00  0.00     0.209 HD
ENDBRANCH  31  32
ENDBRANCH  27  31
BRANCH  28  34
HETATM   34  O7  UNL     1     -12.565  42.837 -24.785  1.00  0.00    -0.390 OA
HETATM   35  H50 UNL     1     -12.769  42.075 -24.197  1.00  0.00     0.210 HD
ENDBRANCH  28  34
BRANCH  29  36
HETATM   36  O8  UNL     1     -10.931  40.925 -23.566  1.00  0.00    -0.390 OA
HETATM   37  H52 UNL     1     -10.324  40.161 -23.528  1.00  0.00     0.210 HD
ENDBRANCH  29  36
BRANCH  30  38
HETATM   38  O9  UNL     1      -8.100  41.106 -24.795  1.00  0.00    -0.388 OA
HETATM   39  H54 UNL     1      -8.094  41.272 -25.755  1.00  0.00     0.210 HD
ENDBRANCH  30  38
ENDBRANCH  24  25
ENDBRANCH  20  24
BRANCH   1  40
HETATM   40  O1  UNL     1      -6.822  49.582 -19.800  1.00  0.00    -0.365 OA
HETATM   41  C1  UNL     1      -7.753  49.073 -18.856  1.00  0.00     0.204 C 
ENDBRANCH   1  40
BRANCH  12  42
HETATM   42  C13 UNL     1      -0.305  51.303 -22.003  1.00  0.00    -0.010 C 
HETATM   43  C14 UNL     1       0.357  51.978 -20.783  1.00  0.00     0.010 C 
BRANCH  42  44
HETATM   44  C15 UNL     1      -0.995  52.388 -22.863  1.00  0.00     0.031 C 
BRANCH  44  45
HETATM   45  C16 UNL     1      -0.413  52.682 -24.215  1.00  0.00    -0.027 C 
HETATM   46  C17 UNL     1       0.218  51.774 -24.978  1.00  0.00     0.006 C 
BRANCH  46  47
HETATM   47  C18 UNL     1       0.820  51.990 -26.345  1.00  0.00     0.068 C 
HETATM   48  C19 UNL     1       0.020  51.414 -27.518  1.00  0.00     0.050 C 
HETATM   49  C20 UNL     1       2.248  51.448 -26.376  1.00  0.00     0.050 C 
BRANCH  47  50
HETATM   50  O3  UNL     1       0.896  53.404 -26.530  1.00  0.00    -0.387 OA
HETATM   51  H30 UNL     1      -0.010  53.750 -26.432  1.00  0.00     0.211 HD
ENDBRANCH  47  50
ENDBRANCH  46  47
ENDBRANCH  44  45
ENDBRANCH  42  44
ENDBRANCH  12  42
TORSDOF 13
ENDMDL
