MODEL 1
REMARK minimizedAffinity -6.71416187
REMARK CNNscore 0.633162558
REMARK CNNaffinity 6.75824308
REMARK  4 active torsions:
REMARK  status: ('A' for Active; 'I' for Inactive)
REMARK    1  A    between atoms: C4_4  and  C5_5 
REMARK    2  A    between atoms: C5_5  and  C6_7 
REMARK    3  A    between atoms: C6_7  and  C7_8 
REMARK    4  A    between atoms: C7_8  and  C9_10 
ROOT
HETATM    1  C9  UNL     1     -14.600 -10.089  29.259  1.00  0.00    -0.001 C 
HETATM    2  C10 UNL     1     -14.351 -10.983  30.499  1.00  0.00     0.007 C 
HETATM    3  C11 UNL     1     -13.598 -12.240  30.002  1.00  0.00     0.015 C 
HETATM    4  C12 UNL     1     -13.606 -12.139  28.460  1.00  0.00    -0.013 C 
HETATM    5  C13 UNL     1     -14.951 -12.786  27.997  1.00  0.00     0.021 C 
HETATM    6  C14 UNL     1     -12.506 -12.841  27.675  1.00  0.00    -0.070 C 
HETATM    7  C15 UNL     1     -11.902 -13.955  28.121  1.00  0.00    -0.022 C 
HETATM    8  C16 UNL     1     -10.861 -14.725  27.375  1.00  0.00     0.034 C 
HETATM    9  C17 UNL     1     -10.489 -14.229  25.954  1.00  0.00     0.013 C 
HETATM   10  C18 UNL     1      -9.014 -13.703  25.818  1.00  0.00     0.018 C 
HETATM   11  C19 UNL     1      -8.012 -14.822  26.191  1.00  0.00     0.023 C 
HETATM   12  C20 UNL     1      -8.707 -12.464  26.672  1.00  0.00     0.023 C 
HETATM   13  C21 UNL     1      -8.730 -13.343  24.348  1.00  0.00     0.135 C 
HETATM   14  O2  UNL     1      -7.596 -13.066  23.950  1.00  0.00    -0.297 OA
HETATM   15  C22 UNL     1      -9.895 -13.340  23.390  1.00  0.00     0.080 C 
HETATM   16  C23 UNL     1     -11.044 -12.591  24.041  1.00  0.00     0.017 C 
HETATM   17  C24 UNL     1     -11.601 -13.309  25.305  1.00  0.00    -0.031 C 
HETATM   18  C25 UNL     1     -12.768 -14.230  24.849  1.00  0.00     0.016 C 
HETATM   19  C26 UNL     1     -12.122 -12.235  26.332  1.00  0.00     0.024 C 
HETATM   20  C27 UNL     1     -13.193 -11.261  25.772  1.00  0.00     0.010 C 
HETATM   21  C28 UNL     1     -13.763 -10.233  26.779  1.00  0.00     0.011 C 
HETATM   22  C29 UNL     1     -13.507 -10.588  28.259  1.00  0.00    -0.029 C 
HETATM   23  C30 UNL     1     -12.127  -9.988  28.678  1.00  0.00     0.016 C 
ENDROOT
BRANCH   1  24
HETATM   24  C7  UNL     1     -14.722  -8.551  29.474  1.00  0.00    -0.007 C 
HETATM   25  C8  UNL     1     -16.015  -8.020  28.831  1.00  0.00     0.011 C 
BRANCH  24  26
HETATM   26  C6  UNL     1     -14.541  -8.010  30.908  1.00  0.00     0.087 C 
BRANCH  26  27
HETATM   27  C5  UNL     1     -13.140  -7.590  31.348  1.00  0.00     0.149 C 
HETATM   28  O1  UNL     1     -12.609  -7.995  32.375  1.00  0.00    -0.293 OA
BRANCH  27  29
HETATM   29  C4  UNL     1     -12.444  -6.633  30.425  1.00  0.00     0.052 C 
HETATM   30  C2  UNL     1     -12.304  -5.302  30.574  1.00  0.00    -0.084 C 
HETATM   31  C1  UNL     1     -12.861  -4.469  31.697  1.00  0.00     0.043 C 
HETATM   32  C3  UNL     1     -11.533  -4.503  29.550  1.00  0.00     0.043 C 
ENDBRANCH  27  29
ENDBRANCH  26  27
ENDBRANCH  24  26
ENDBRANCH   1  24
TORSDOF 4
ENDMDL
