MODEL 1
REMARK minimizedAffinity -7.33991146
REMARK  12 active torsions:
REMARK  status: ('A' for Active; 'I' for Inactive)
REMARK    1  A    between atoms: C2_2  and  O1_3 
REMARK    2  A    between atoms: O1_3  and  C3_4 
REMARK    3  A    between atoms: C3_4  and  C4_6 
REMARK    4  A    between atoms: C6_8  and  N1_9 
REMARK       I    between atoms: N1_9  and  C7_10 
REMARK    5  A    between atoms: C7_10  and  C8_12 
REMARK    6  A    between atoms: C14_19  and  O4_20 
REMARK    7  A    between atoms: O4_20  and  C15_21 
REMARK    8  A    between atoms: C15_21  and  C16_22 
REMARK    9  A    between atoms: C16_22  and  O5_23 
REMARK   10  A    between atoms: C16_22  and  C17_24 
REMARK   11  A    between atoms: C17_24  and  N2_25 
REMARK   12  A    between atoms: N2_25  and  C18_26 
ROOT
HETATM    1  C4  UNL     1      -1.103   5.309  12.061  1.00  0.00     0.074 A 
HETATM    2  C5  UNL     1      -2.355   5.325  12.696  1.00  0.00     0.050 A 
HETATM    3  C6  UNL     1      -2.924   6.535  13.080  1.00  0.00     0.036 A 
HETATM    4  C12 UNL     1      -2.217   7.716  12.825  1.00  0.00     0.032 A 
HETATM    5  C13 UNL     1      -0.965   7.693  12.191  1.00  0.00     0.040 A 
HETATM    6  C14 UNL     1      -0.389   6.486  11.802  1.00  0.00     0.085 A 
ENDROOT
BRANCH   6   7
HETATM    7  O4  UNL     1       0.815   6.346  11.178  1.00  0.00    -0.348 OA
BRANCH   7   8
HETATM    8  C15 UNL     1       1.999   6.961  11.710  1.00  0.00     0.209 C 
BRANCH   8   9
HETATM    9  C16 UNL     1       3.259   6.297  11.132  1.00  0.00     0.170 C 
BRANCH   9  10
HETATM   10  O5  UNL     1       4.417   6.703  11.887  1.00  0.00    -0.392 OA
HETATM   11  H16 UNL     1       4.690   5.912  12.403  1.00  0.00     0.210 HD
ENDBRANCH   9  10
BRANCH   9  12
HETATM   12  C17 UNL     1       3.515   6.693   9.660  1.00  0.00     0.304 C 
BRANCH  12  13
HETATM   13  N2  UNL     1       2.395   6.442   8.747  1.00  0.00     0.094 N 
HETATM   14  H19 UNL     1       1.595   6.131   9.302  1.00  0.00     0.317 HD
BRANCH  13  15
HETATM   15  C18 UNL     1       1.952   7.576   7.904  1.00  0.00     0.147 C 
HETATM   16  C19 UNL     1       1.809   7.141   6.432  1.00  0.00     0.048 C 
HETATM   17  C20 UNL     1       3.077   8.629   7.995  1.00  0.00     0.048 C 
HETATM   18  C21 UNL     1       0.643   8.224   8.386  1.00  0.00     0.048 C 
ENDBRANCH  13  15
ENDBRANCH  12  13
ENDBRANCH   9  12
ENDBRANCH   8   9
ENDBRANCH   7   8
ENDBRANCH   6   7
BRANCH   1  19
HETATM   19  C3  UNL     1      -0.540   3.999  11.689  1.00  0.00     0.296 C 
HETATM   20  O2  UNL     1       0.614   3.810  11.343  1.00  0.00    -0.259 OA
BRANCH  19  21
HETATM   21  O1  UNL     1      -1.528   3.081  11.828  1.00  0.00    -0.318 OA
BRANCH  21  22
HETATM   22  C2  UNL     1      -1.788   2.266  10.679  1.00  0.00     0.174 C 
HETATM   23  C1  UNL     1      -1.061   0.939  10.798  1.00  0.00     0.034 C 
ENDBRANCH  21  22
ENDBRANCH  19  21
ENDBRANCH   1  19
BRANCH   3  24
HETATM   24  N1  UNL     1      -4.169   6.660  13.731  1.00  0.00    -0.322 N 
HETATM   25  C7  UNL     1      -4.449   6.458  15.080  1.00  0.00     0.263 C 
HETATM   26  O3  UNL     1      -3.618   6.077  15.900  1.00  0.00    -0.267 OA
HETATM   27  H7  UNL     1      -4.959   6.859  13.134  1.00  0.00     0.169 HD
BRANCH  25  28
HETATM   28  C8  UNL     1      -5.845   6.722  15.437  1.00  0.00     0.072 A 
HETATM   29  C9  UNL     1      -6.758   5.944  16.134  1.00  0.00     0.025 A 
HETATM   30  C10 UNL     1      -8.028   6.582  16.275  1.00  0.00     0.009 A 
HETATM   31  C11 UNL     1      -8.054   7.819  15.674  1.00  0.00     0.050 A 
HETATM   32  S1  UNL     1      -6.561   8.204  14.937  1.00  0.00    -0.097 SA
ENDBRANCH  25  28
ENDBRANCH   3  24
TORSDOF 12
ENDMDL
