MODEL 1
REMARK minimizedAffinity -8.28189182
REMARK CNNscore 0.520492136
REMARK CNNaffinity 6.07164717
REMARK  12 active torsions:
REMARK  status: ('A' for Active; 'I' for Inactive)
REMARK    1  A    between atoms: O1_2  and  C2_3 
REMARK    2  A    between atoms: C4_5  and  O2_6 
REMARK    3  A    between atoms: O2_6  and  C5_7 
REMARK    4  A    between atoms: C8_10  and  C9_11 
REMARK    5  A    between atoms: N1_12  and  C10_14 
REMARK    6  A    between atoms: C10_14  and  C11_15 
REMARK    7  A    between atoms: C11_15  and  C12_16 
REMARK    8  A    between atoms: C12_16  and  O3_17 
REMARK    9  A    between atoms: C18_23  and  C19_24 
REMARK   10  A    between atoms: C25_32  and  O6_33 
REMARK   11  A    between atoms: C29_37  and  O7_38 
REMARK   12  A    between atoms: C33_43  and  O9_44 
ROOT
HETATM    1  C5  UNL     1      -7.566  48.122 -25.549  1.00  0.00     0.127 C 
HETATM    2  C6  UNL     1      -8.912  48.700 -25.115  1.00  0.00     0.033 C 
HETATM    3  C7  UNL     1      -9.913  48.702 -26.265  1.00  0.00     0.021 C 
HETATM    4  C8  UNL     1     -10.240  47.275 -26.831  1.00  0.00     0.026 C 
HETATM    5  C13 UNL     1     -11.566  46.745 -26.141  1.00  0.00     0.009 C 
HETATM    6  C14 UNL     1     -12.840  47.351 -26.781  1.00  0.00     0.007 C 
HETATM    7  C15 UNL     1     -14.135  46.836 -26.157  1.00  0.00     0.013 C 
HETATM    8  C16 UNL     1     -14.249  45.292 -26.193  1.00  0.00    -0.005 C 
HETATM    9  C17 UNL     1     -14.471  44.814 -27.641  1.00  0.00     0.019 C 
HETATM   10  C18 UNL     1     -15.371  44.767 -25.239  1.00  0.00     0.028 C 
HETATM   11  C23 UNL     1     -14.741  44.911 -23.837  1.00  0.00     0.013 C 
HETATM   12  C24 UNL     1     -13.220  44.860 -24.036  1.00  0.00     0.040 C 
HETATM   13  C25 UNL     1     -12.988  44.648 -25.549  1.00  0.00     0.070 C 
HETATM   14  C26 UNL     1     -11.640  45.200 -26.094  1.00  0.00     0.026 C 
HETATM   15  C27 UNL     1     -10.441  44.584 -25.341  1.00  0.00     0.011 C 
HETATM   16  C28 UNL     1      -9.180  45.447 -25.342  1.00  0.00     0.039 C 
HETATM   17  C29 UNL     1      -9.031  46.287 -26.618  1.00  0.00     0.073 C 
HETATM   18  C30 UNL     1      -7.695  47.054 -26.641  1.00  0.00     0.071 C 
ENDROOT
BRANCH   1  19
HETATM   19  O2  UNL     1      -6.902  47.505 -24.442  1.00  0.00    -0.356 OA
BRANCH  19  20
HETATM   20  C4  UNL     1      -5.586  48.004 -24.203  1.00  0.00     0.263 C 
HETATM   21  C3  UNL     1      -5.742  49.357 -23.511  1.00  0.00     0.095 C 
HETATM   22  C2  UNL     1      -4.379  50.011 -23.281  1.00  0.00     0.156 C 
HETATM   23  C33 UNL     1      -3.577  50.037 -24.595  1.00  0.00     0.175 C 
HETATM   24  C31 UNL     1      -3.538  48.625 -25.218  1.00  0.00     0.151 C 
HETATM   25  O8  UNL     1      -4.883  48.164 -25.435  1.00  0.00    -0.354 OA
HETATM   26  C32 UNL     1      -2.825  48.625 -26.567  1.00  0.00     0.042 C 
BRANCH  22  27
HETATM   27  O1  UNL     1      -3.698  49.238 -22.281  1.00  0.00    -0.388 OA
HETATM   28  C1  UNL     1      -2.459  49.815 -21.883  1.00  0.00     0.202 C 
ENDBRANCH  22  27
BRANCH  23  29
HETATM   29  O9  UNL     1      -4.195  50.972 -25.491  1.00  0.00    -0.390 OA
HETATM   30  H51 UNL     1      -4.848  50.470 -26.019  1.00  0.00     0.210 HD
ENDBRANCH  23  29
ENDBRANCH  19  20
ENDBRANCH   1  19
BRANCH  17  31
HETATM   31  O7  UNL     1      -8.984  45.316 -27.693  1.00  0.00    -0.389 OA
HETATM   32  H43 UNL     1      -8.084  44.947 -27.718  1.00  0.00     0.210 HD
ENDBRANCH  17  31
BRANCH   4  33
HETATM   33  C9  UNL     1     -10.460  47.356 -28.357  1.00  0.00     0.068 C 
HETATM   34  N1  UNL     1      -9.820  48.185 -29.109  1.00  0.00    -0.401 N 
ATOM     35  H1  UNL     1      -9.144  48.853 -28.739  1.00  0.00     0.158 HD
BRANCH  34  36
HETATM   36  C10 UNL     1     -10.140  48.097 -30.534  1.00  0.00     0.121 C 
BRANCH  36  37
HETATM   37  C11 UNL     1      -8.848  48.138 -31.346  1.00  0.00     0.045 C 
BRANCH  37  38
HETATM   38  C12 UNL     1      -7.985  49.342 -30.995  1.00  0.00     0.165 C 
BRANCH  38  39
HETATM   39  O3  UNL     1      -8.833  50.426 -30.631  1.00  0.00    -0.401 OA
HETATM   40  H20 UNL     1      -8.251  51.168 -30.393  1.00  0.00     0.209 HD
ENDBRANCH  38  39
ENDBRANCH  37  38
ENDBRANCH  36  37
ENDBRANCH  34  36
ENDBRANCH   4  33
BRANCH  13  41
HETATM   41  O6  UNL     1     -13.012  43.226 -25.755  1.00  0.00    -0.389 OA
HETATM   42  H37 UNL     1     -12.641  43.035 -26.635  1.00  0.00     0.210 HD
ENDBRANCH  13  41
BRANCH  10  43
HETATM   43  C19 UNL     1     -16.747  45.351 -25.408  1.00  0.00    -0.045 A 
HETATM   44  C20 UNL     1     -17.373  46.281 -24.682  1.00  0.00     0.087 A 
HETATM   45  C21 UNL     1     -18.723  46.421 -25.232  1.00  0.00     0.283 A 
HETATM   46  O4  UNL     1     -19.562  47.201 -24.817  1.00  0.00    -0.260 OA
HETATM   47  O5  UNL     1     -18.880  45.554 -26.269  1.00  0.00    -0.314 OA
HETATM   48  C22 UNL     1     -17.668  44.828 -26.451  1.00  0.00     0.213 A 
ENDBRANCH  10  43
TORSDOF 12
ENDMDL
