MODEL 1
REMARK minimizedAffinity -9.88994884
REMARK  7 active torsions:
REMARK  status: ('A' for Active; 'I' for Inactive)
REMARK    1  A    between atoms: C4_4  and  C5_5 
REMARK    2  A    between atoms: C5_5  and  C6_6 
REMARK    3  A    between atoms: C6_6  and  C7_7 
REMARK    4  A    between atoms: C7_7  and  C9_9 
REMARK    5  A    between atoms: C27_27  and  O1_28 
REMARK    6  A    between atoms: C28_29  and  O2_30 
REMARK    7  A    between atoms: C29_31  and  O3_32 
ROOT
HETATM    1  C9  UNL     1      -0.446  52.632 -21.349  1.00  0.00    -0.002 C 
HETATM    2  C10 UNL     1      -0.098  52.516 -22.864  1.00  0.00     0.007 C 
HETATM    3  C11 UNL     1      -1.009  51.438 -23.472  1.00  0.00     0.015 C 
HETATM    4  C12 UNL     1      -2.125  51.239 -22.435  1.00  0.00    -0.013 C 
HETATM    5  C13 UNL     1      -3.165  52.381 -22.663  1.00  0.00     0.021 C 
HETATM    6  C14 UNL     1      -2.944  49.951 -22.463  1.00  0.00    -0.068 C 
HETATM    7  C15 UNL     1      -3.521  49.487 -21.324  1.00  0.00    -0.065 C 
HETATM    8  C16 UNL     1      -3.257  50.172 -19.974  1.00  0.00     0.036 C 
HETATM    9  C17 UNL     1      -2.309  51.392 -19.953  1.00  0.00     0.015 C 
HETATM   10  C18 UNL     1      -1.293  51.343 -21.100  1.00  0.00    -0.029 C 
HETATM   11  C19 UNL     1      -0.336  50.131 -20.877  1.00  0.00     0.016 C 
HETATM   12  C20 UNL     1      -4.446  48.236 -21.300  1.00  0.00     0.012 C 
HETATM   13  C21 UNL     1      -3.656  47.097 -20.601  1.00  0.00     0.023 C 
HETATM   14  C22 UNL     1      -4.824  47.725 -22.760  1.00  0.00     0.007 C 
HETATM   15  C23 UNL     1      -3.627  47.866 -23.707  1.00  0.00     0.010 C 
HETATM   16  C24 UNL     1      -3.121  49.294 -23.806  1.00  0.00     0.036 C 
HETATM   17  C25 UNL     1      -6.186  48.284 -23.306  1.00  0.00     0.018 C 
HETATM   18  C26 UNL     1      -6.331  48.249 -24.831  1.00  0.00     0.013 C 
HETATM   19  C27 UNL     1      -6.522  49.659 -22.713  1.00  0.00     0.153 C 
HETATM   20  C28 UNL     1      -6.673  49.588 -21.180  1.00  0.00     0.177 C 
HETATM   21  C29 UNL     1      -5.805  48.467 -20.553  1.00  0.00     0.162 C 
ENDROOT
BRANCH   1  22
HETATM   22  C7  UNL     1       0.824  52.926 -20.488  1.00  0.00    -0.014 C 
HETATM   23  C8  UNL     1       1.711  53.964 -21.199  1.00  0.00     0.010 C 
BRANCH  22  24
HETATM   24  C6  UNL     1       0.471  53.409 -19.062  1.00  0.00     0.008 C 
BRANCH  24  25
HETATM   25  C5  UNL     1       0.803  52.408 -17.947  1.00  0.00     0.028 C 
BRANCH  25  26
HETATM   26  C4  UNL     1       2.209  52.610 -17.446  1.00  0.00    -0.025 C 
HETATM   27  C2  UNL     1       2.726  52.244 -16.255  1.00  0.00    -0.091 C 
HETATM   28  C1  UNL     1       1.983  51.513 -15.171  1.00  0.00     0.042 C 
HETATM   29  C3  UNL     1       4.163  52.545 -15.921  1.00  0.00     0.042 C 
ENDBRANCH  25  26
ENDBRANCH  24  25
ENDBRANCH  22  24
ENDBRANCH   1  22
BRANCH  21  30
HETATM   30  O3  UNL     1      -5.706  48.632 -19.137  1.00  0.00    -0.392 OA
HETATM   31  H48 UNL     1      -5.281  47.847 -18.759  1.00  0.00     0.210 HD
ENDBRANCH  21  30
BRANCH  20  32
HETATM   32  O2  UNL     1      -6.413  50.887 -20.636  1.00  0.00    -0.390 OA
HETATM   33  H46 UNL     1      -6.910  51.520 -21.183  1.00  0.00     0.210 HD
ENDBRANCH  20  32
BRANCH  19  34
HETATM   34  O1  UNL     1      -7.735  50.192 -23.261  1.00  0.00    -0.393 OA
HETATM   35  H44 UNL     1      -8.442  49.537 -23.128  1.00  0.00     0.210 HD
ENDBRANCH  19  34
TORSDOF 7
ENDMDL
