MODEL 1
REMARK minimizedAffinity -7.58405066
REMARK CNNscore 0.480248064
REMARK CNNaffinity 6.00256348
REMARK  2 active torsions:
REMARK  status: ('A' for Active; 'I' for Inactive)
REMARK    1  A    between atoms: C21_27  and  C22_28 
REMARK    2  A    between atoms: C22_28  and  O7_30 
ROOT
HETATM    1  C1  UNL     1       0.479  47.466  -9.175  1.00  0.00     0.043 C 
HETATM    2  C2  UNL     1       0.749  48.718  -9.973  1.00  0.00    -0.076 C 
HETATM    3  C3  UNL     1       1.901  49.388  -9.794  1.00  0.00     0.084 C 
HETATM    4  C4  UNL     1       2.331  50.600 -10.526  1.00  0.00     0.283 C 
HETATM    5  O1  UNL     1       2.207  50.788 -11.721  1.00  0.00    -0.260 OA
HETATM    6  O2  UNL     1       2.922  51.435  -9.634  1.00  0.00    -0.317 OA
HETATM    7  C5  UNL     1       3.526  52.596 -10.232  1.00  0.00     0.195 C 
HETATM    8  C6  UNL     1       4.010  53.672  -9.180  1.00  0.00     0.053 C 
HETATM    9  C7  UNL     1       4.099  53.028  -7.732  1.00  0.00     0.159 C 
HETATM   10  C8  UNL     1       5.291  52.130  -7.534  1.00  0.00     0.011 C 
HETATM   11  C9  UNL     1       6.446  52.313  -8.196  1.00  0.00    -0.054 C 
HETATM   12  C10 UNL     1       7.623  51.404  -7.986  1.00  0.00     0.046 C 
HETATM   13  C11 UNL     1       6.635  53.436  -9.131  1.00  0.00     0.180 A 
HETATM   14  O3  UNL     1       6.263  54.776  -8.767  1.00  0.00    -0.370 OA
HETATM   15  C12 UNL     1       5.394  54.113  -9.682  1.00  0.00     0.170 A 
HETATM   16  O4  UNL     1       4.119  53.980  -6.649  1.00  0.00    -0.372 OA
HETATM   17  C13 UNL     1       3.192  55.065  -6.754  1.00  0.00     0.162 C 
HETATM   18  C14 UNL     1       1.751  54.600  -6.988  1.00  0.00     0.068 C 
HETATM   19  C15 UNL     1       1.633  54.428  -8.525  1.00  0.00     0.147 C 
HETATM   20  O5  UNL     1       0.538  55.185  -9.070  1.00  0.00    -0.312 OA
HETATM   21  C16 UNL     1      -0.688  54.645  -8.846  1.00  0.00     0.283 C 
HETATM   22  O6  UNL     1      -0.953  53.795  -8.011  1.00  0.00    -0.260 OA
HETATM   23  C17 UNL     1      -1.601  55.169  -9.888  1.00  0.00     0.082 C 
HETATM   24  C18 UNL     1      -2.562  54.433 -10.475  1.00  0.00     0.006 C 
HETATM   25  C19 UNL     1      -2.930  53.083 -10.114  1.00  0.00    -0.001 C 
HETATM   26  C20 UNL     1      -3.420  52.179 -10.978  1.00  0.00     0.007 C 
HETATM   27  C21 UNL     1      -3.681  50.747 -10.587  1.00  0.00     0.172 C 
HETATM   28  O8  UNL     1      -2.614  49.960 -11.148  1.00  0.00    -0.379 OA
HETATM   29  C24 UNL     1      -1.536  49.769 -10.223  1.00  0.00     0.173 C 
HETATM   30  C25 UNL     1      -0.356  49.104 -10.935  1.00  0.00     0.060 C 
HETATM   31  C26 UNL     1       3.011  54.918  -9.128  1.00  0.00     0.034 C 
HETATM   32  C27 UNL     1       2.856  55.668 -10.467  1.00  0.00     0.022 C 
HETATM   33  C28 UNL     1       3.495  55.811  -8.003  1.00  0.00     0.119 A 
HETATM   34  C29 UNL     1       4.438  56.984  -8.092  1.00  0.00     0.210 A 
HETATM   35  O9  UNL     1       3.017  57.165  -8.022  1.00  0.00    -0.371 OA
ENDROOT
BRANCH  27  36
HETATM   36  C22 UNL     1      -5.014  50.226 -11.173  1.00  0.00     0.146 C 
HETATM   37  C23 UNL     1      -5.991  49.821 -10.071  1.00  0.00     0.042 C 
BRANCH  36  38
HETATM   38  O7  UNL     1      -4.791  49.062 -11.981  1.00  0.00    -0.393 OA
HETATM   39  H27 UNL     1      -3.984  48.645 -11.617  1.00  0.00     0.210 HD
ENDBRANCH  36  38
ENDBRANCH  27  36
TORSDOF 2
ENDMDL
