MODEL 1
REMARK minimizedAffinity -8.79642963
REMARK CNNscore 0.288451612
REMARK CNNaffinity 7.01368189
REMARK  12 active torsions:
REMARK  status: ('A' for Active; 'I' for Inactive)
REMARK    1  A    between atoms: O1_2  and  C2_3 
REMARK    2  A    between atoms: C2_3  and  C5_6 
REMARK    3  A    between atoms: C6_7  and  C7_8 
REMARK    4  A    between atoms: C7_8  and  C8_9 
REMARK    5  A    between atoms: C8_9  and  C10_11 
REMARK    6  A    between atoms: C28_31  and  O4_32 
REMARK    7  A    between atoms: O4_32  and  C29_33 
REMARK    8  A    between atoms: C30_35  and  C31_36 
REMARK    9  A    between atoms: C31_36  and  O6_37 
REMARK   10  A    between atoms: C32_38  and  O7_39 
REMARK   11  A    between atoms: C33_40  and  O8_41 
REMARK   12  A    between atoms: C34_42  and  O9_43 
ROOT
HETATM    1  C10 UNL     1       0.143  51.464 -20.635  1.00  0.00    -0.002 C 
HETATM    2  C11 UNL     1      -0.219  52.290 -19.359  1.00  0.00     0.006 C 
HETATM    3  C12 UNL     1      -1.567  51.760 -18.825  1.00  0.00     0.011 C 
HETATM    4  C13 UNL     1      -1.841  50.479 -19.636  1.00  0.00    -0.028 C 
HETATM    5  C14 UNL     1      -1.028  49.345 -18.925  1.00  0.00     0.016 C 
HETATM    6  C15 UNL     1      -3.343  50.087 -19.768  1.00  0.00     0.035 C 
HETATM    7  C16 UNL     1      -4.009  49.763 -18.445  1.00  0.00    -0.021 C 
HETATM    8  C17 UNL     1      -4.726  48.642 -18.273  1.00  0.00     0.009 C 
HETATM    9  C18 UNL     1      -4.855  47.594 -19.375  1.00  0.00     0.102 C 
HETATM   10  O2  UNL     1      -5.773  48.157 -20.334  1.00  0.00    -0.304 OA
HETATM   11  C19 UNL     1      -5.088  49.013 -21.164  1.00  0.00     0.270 C 
HETATM   12  O3  UNL     1      -5.628  49.727 -21.992  1.00  0.00    -0.264 OA
HETATM   13  C20 UNL     1      -3.587  48.954 -20.839  1.00  0.00     0.062 C 
HETATM   14  C21 UNL     1      -2.755  49.142 -22.133  1.00  0.00     0.022 C 
HETATM   15  C22 UNL     1      -1.314  49.661 -21.959  1.00  0.00     0.011 C 
HETATM   16  C23 UNL     1      -1.259  50.895 -21.044  1.00  0.00    -0.032 C 
HETATM   17  C24 UNL     1      -2.066  52.040 -21.745  1.00  0.00     0.016 C 
HETATM   18  C25 UNL     1      -3.550  47.543 -20.195  1.00  0.00     0.045 C 
HETATM   19  C26 UNL     1      -3.506  46.395 -21.224  1.00  0.00     0.012 C 
HETATM   20  C27 UNL     1      -3.890  45.053 -20.612  1.00  0.00     0.033 C 
HETATM   21  C28 UNL     1      -5.296  45.125 -19.990  1.00  0.00     0.136 C 
HETATM   22  C35 UNL     1      -5.354  46.204 -18.851  1.00  0.00     0.015 C 
HETATM   23  C36 UNL     1      -4.493  45.716 -17.659  1.00  0.00     0.021 C 
HETATM   24  C37 UNL     1      -6.815  46.293 -18.342  1.00  0.00     0.021 C 
ENDROOT
BRANCH  21  25
HETATM   25  O4  UNL     1      -6.270  45.457 -20.989  1.00  0.00    -0.352 OA
BRANCH  25  26
HETATM   26  C29 UNL     1      -7.160  44.388 -21.349  1.00  0.00     0.292 C 
HETATM   27  O5  UNL     1      -6.650  43.138 -20.911  1.00  0.00    -0.348 OA
HETATM   28  C30 UNL     1      -7.510  42.021 -21.215  1.00  0.00     0.179 C 
HETATM   29  C32 UNL     1      -8.570  42.287 -22.308  1.00  0.00     0.180 C 
HETATM   30  C33 UNL     1      -8.055  43.210 -23.425  1.00  0.00     0.183 C 
HETATM   31  C34 UNL     1      -7.216  44.383 -22.889  1.00  0.00     0.204 C 
BRANCH  28  32
HETATM   32  C31 UNL     1      -6.576  40.862 -21.583  1.00  0.00     0.198 C 
BRANCH  32  33
HETATM   33  O6  UNL     1      -5.430  40.891 -20.732  1.00  0.00    -0.398 OA
HETATM   34  H46 UNL     1      -5.112  41.810 -20.782  1.00  0.00     0.209 HD
ENDBRANCH  32  33
ENDBRANCH  28  32
BRANCH  29  35
HETATM   35  O7  UNL     1      -9.701  42.908 -21.677  1.00  0.00    -0.390 OA
HETATM   36  H48 UNL     1     -10.384  43.056 -22.364  1.00  0.00     0.210 HD
ENDBRANCH  29  35
BRANCH  30  37
HETATM   37  O8  UNL     1      -7.299  42.437 -24.363  1.00  0.00    -0.390 OA
HETATM   38  H50 UNL     1      -7.106  43.013 -25.127  1.00  0.00     0.210 HD
ENDBRANCH  30  37
BRANCH  31  39
HETATM   39  O9  UNL     1      -7.754  45.624 -23.377  1.00  0.00    -0.388 OA
HETATM   40  H52 UNL     1      -7.177  46.310 -22.990  1.00  0.00     0.210 HD
ENDBRANCH  31  39
ENDBRANCH  25  26
ENDBRANCH  21  25
BRANCH   1  41
HETATM   41  C8  UNL     1       0.980  52.247 -21.694  1.00  0.00    -0.010 C 
HETATM   42  C9  UNL     1       1.771  53.402 -21.056  1.00  0.00     0.010 C 
BRANCH  41  43
HETATM   43  C7  UNL     1       0.151  52.808 -22.879  1.00  0.00     0.031 C 
BRANCH  43  44
HETATM   44  C6  UNL     1       0.636  52.492 -24.267  1.00  0.00    -0.027 C 
HETATM   45  C5  UNL     1      -0.172  52.145 -25.283  1.00  0.00     0.006 C 
BRANCH  45  46
HETATM   46  C2  UNL     1       0.259  51.917 -26.720  1.00  0.00     0.070 C 
HETATM   47  C3  UNL     1       1.738  51.505 -26.785  1.00  0.00     0.050 C 
HETATM   48  C4  UNL     1       0.089  53.239 -27.486  1.00  0.00     0.050 C 
BRANCH  46  49
HETATM   49  O1  UNL     1      -0.600  50.973 -27.383  1.00  0.00    -0.382 OA
HETATM   50  C1  UNL     1      -1.677  50.456 -26.607  1.00  0.00     0.202 C 
ENDBRANCH  46  49
ENDBRANCH  45  46
ENDBRANCH  43  44
ENDBRANCH  41  43
ENDBRANCH   1  41
TORSDOF 12
ENDMDL
