MODEL 1
REMARK minimizedAffinity -9.76113129
REMARK  11 active torsions:
REMARK  status: ('A' for Active; 'I' for Inactive)
REMARK    1  A    between atoms: C2_2  and  C3_3 
REMARK    2  A    between atoms: C2_2  and  C4_5 
REMARK    3  A    between atoms: C3_3  and  O1_4 
REMARK    4  A    between atoms: C8_9  and  O2_10 
REMARK    5  A    between atoms: C9_11  and  C10_12 
REMARK    6  A    between atoms: C10_12  and  O3_13 
REMARK    7  A    between atoms: O3_13  and  C11_14 
REMARK    8  A    between atoms: C11_14  and  C12_16 
REMARK    9  A    between atoms: C19_23  and  O5_24 
REMARK   10  A    between atoms: C24_29  and  C25_30 
REMARK   11  A    between atoms: C25_30  and  O6_31 
ROOT
HETATM    1  C4  UNL     1      -5.574   4.760  12.966  1.00  0.00    -0.070 C 
HETATM    2  C5  UNL     1      -5.402   5.641  13.974  1.00  0.00    -0.061 C 
HETATM    3  C6  UNL     1      -4.182   6.270  14.636  1.00  0.00     0.029 C 
HETATM    4  C7  UNL     1      -2.808   5.598  14.481  1.00  0.00     0.046 C 
HETATM    5  C8  UNL     1      -1.820   6.139  13.449  1.00  0.00     0.149 C 
HETATM    6  C9  UNL     1      -1.160   7.476  13.751  1.00  0.00    -0.029 C 
HETATM    7  C18 UNL     1      -1.687   8.433  14.545  1.00  0.00     0.013 C 
HETATM    8  C19 UNL     1      -3.040   8.514  15.199  1.00  0.00     0.150 C 
HETATM    9  C20 UNL     1      -4.244   7.822  14.493  1.00  0.00    -0.007 C 
HETATM   10  C21 UNL     1      -4.331   8.310  13.020  1.00  0.00     0.019 C 
HETATM   11  C22 UNL     1      -5.560   8.277  15.219  1.00  0.00     0.014 C 
HETATM   12  C23 UNL     1      -6.831   7.623  14.656  1.00  0.00     0.017 C 
HETATM   13  C24 UNL     1      -6.751   6.079  14.565  1.00  0.00     0.005 C 
HETATM   14  C26 UNL     1      -7.753   5.553  13.519  1.00  0.00     0.020 C 
HETATM   15  C27 UNL     1      -7.035   4.429  12.786  1.00  0.00     0.036 C 
ENDROOT
BRANCH   6  16
HETATM   16  C10 UNL     1       0.166   7.675  13.020  1.00  0.00     0.215 C 
BRANCH  16  17
HETATM   17  O3  UNL     1       0.171   7.090  11.708  1.00  0.00    -0.313 OA
BRANCH  17  18
HETATM   18  C11 UNL     1       0.044   7.951  10.669  1.00  0.00     0.293 C 
HETATM   19  O4  UNL     1      -0.659   8.949  10.636  1.00  0.00    -0.259 OA
BRANCH  18  20
HETATM   20  C12 UNL     1       0.879   7.501   9.520  1.00  0.00     0.039 A 
HETATM   21  C13 UNL     1       0.622   8.060   8.259  1.00  0.00     0.017 A 
HETATM   22  C14 UNL     1       1.372   7.666   7.149  1.00  0.00     0.001 A 
HETATM   23  C15 UNL     1       2.381   6.715   7.291  1.00  0.00     0.000 A 
HETATM   24  C16 UNL     1       2.643   6.155   8.541  1.00  0.00     0.001 A 
HETATM   25  C17 UNL     1       1.895   6.545   9.654  1.00  0.00     0.017 A 
ENDBRANCH  18  20
ENDBRANCH  17  18
ENDBRANCH  16  17
ENDBRANCH   6  16
BRANCH   5  26
HETATM   26  O2  UNL     1      -0.778   5.155  13.360  1.00  0.00    -0.391 OA
HETATM   27  H12 UNL     1      -0.420   5.036  14.257  1.00  0.00     0.210 HD
ENDBRANCH   5  26
BRANCH   8  28
HETATM   28  O5  UNL     1      -2.909   8.056  16.542  1.00  0.00    -0.391 OA
HETATM   29  H22 UNL     1      -2.036   8.333  16.867  1.00  0.00     0.210 HD
ENDBRANCH   8  28
BRANCH   1  30
HETATM   30  C2  UNL     1      -4.568   4.079  12.069  1.00  0.00     0.034 C 
HETATM   31  C1  UNL     1      -3.805   2.989  12.831  1.00  0.00     0.017 C 
BRANCH  30  32
HETATM   32  C3  UNL     1      -5.224   3.521  10.792  1.00  0.00     0.172 C 
BRANCH  32  33
HETATM   33  O1  UNL     1      -4.287   3.424   9.722  1.00  0.00    -0.400 OA
HETATM   34  H7  UNL     1      -3.588   2.806   9.994  1.00  0.00     0.209 HD
ENDBRANCH  32  33
ENDBRANCH  30  32
ENDBRANCH   1  30
BRANCH  13  35
HETATM   35  C25 UNL     1      -7.031   5.455  15.960  1.00  0.00     0.178 C 
BRANCH  35  36
HETATM   36  O6  UNL     1      -8.235   4.693  15.978  1.00  0.00    -0.400 OA
HETATM   37  H32 UNL     1      -8.267   4.234  16.835  1.00  0.00     0.209 HD
ENDBRANCH  35  36
ENDBRANCH  13  35
TORSDOF 11
ENDMDL
