MODEL 1
REMARK minimizedAffinity -9.43399906
REMARK  6 active torsions:
REMARK  status: ('A' for Active; 'I' for Inactive)
REMARK    1  A    between atoms: C2_2  and  C30_31 
REMARK    2  A    between atoms: C3_3  and  C4_4 
REMARK    3  A    between atoms: C4_4  and  C5_5 
REMARK    4  A    between atoms: C5_5  and  C6_6 
REMARK    5  A    between atoms: C6_6  and  C8_8 
REMARK    6  A    between atoms: C30_31  and  O2_32 
ROOT
HETATM    1  C8  UNL     1      -1.893  50.570 -21.784  1.00  0.00    -0.002 C 
HETATM    2  C9  UNL     1      -1.470  52.056 -21.994  1.00  0.00     0.007 C 
HETATM    3  C10 UNL     1      -0.807  52.541 -20.691  1.00  0.00     0.015 C 
HETATM    4  C11 UNL     1      -1.157  51.460 -19.651  1.00  0.00    -0.013 C 
HETATM    5  C12 UNL     1      -2.591  51.804 -19.138  1.00  0.00     0.021 C 
HETATM    6  C13 UNL     1      -0.276  51.347 -18.411  1.00  0.00    -0.070 C 
HETATM    7  C14 UNL     1       0.342  52.407 -17.856  1.00  0.00    -0.022 C 
HETATM    8  C15 UNL     1       1.150  52.357 -16.590  1.00  0.00     0.034 C 
HETATM    9  C16 UNL     1       1.402  50.926 -16.059  1.00  0.00     0.013 C 
HETATM   10  C17 UNL     1       2.151  50.887 -14.683  1.00  0.00     0.018 C 
HETATM   11  C18 UNL     1       1.546  51.754 -13.568  1.00  0.00     0.023 C 
HETATM   12  C19 UNL     1       3.606  51.380 -14.888  1.00  0.00     0.023 C 
HETATM   13  C20 UNL     1       2.210  49.441 -14.170  1.00  0.00     0.135 C 
HETATM   14  O1  UNL     1       3.217  48.968 -13.636  1.00  0.00    -0.297 OA
HETATM   15  C21 UNL     1       0.947  48.624 -14.247  1.00  0.00     0.080 C 
HETATM   16  C22 UNL     1       0.415  48.616 -15.670  1.00  0.00     0.017 C 
HETATM   17  C23 UNL     1       0.114  50.032 -16.219  1.00  0.00    -0.031 C 
HETATM   18  C24 UNL     1      -1.131  50.596 -15.491  1.00  0.00     0.016 C 
HETATM   19  C25 UNL     1      -0.160  49.954 -17.778  1.00  0.00     0.024 C 
HETATM   20  C26 UNL     1      -1.309  49.009 -18.197  1.00  0.00     0.010 C 
HETATM   21  C27 UNL     1      -1.602  48.960 -19.715  1.00  0.00     0.011 C 
HETATM   22  C28 UNL     1      -1.058  50.159 -20.525  1.00  0.00    -0.029 C 
HETATM   23  C29 UNL     1       0.400  49.841 -20.990  1.00  0.00     0.016 C 
ENDROOT
BRANCH   1  24
HETATM   24  C6  UNL     1      -1.788  49.734 -23.097  1.00  0.00    -0.014 C 
HETATM   25  C7  UNL     1      -2.954  48.748 -23.238  1.00  0.00     0.010 C 
BRANCH  24  26
HETATM   26  C5  UNL     1      -1.739  50.679 -24.332  1.00  0.00     0.008 C 
BRANCH  26  27
HETATM   27  C4  UNL     1      -0.326  51.151 -24.703  1.00  0.00     0.028 C 
BRANCH  27  28
HETATM   28  C3  UNL     1      -0.215  51.452 -26.174  1.00  0.00    -0.022 C 
HETATM   29  C2  UNL     1       0.919  51.544 -26.898  1.00  0.00    -0.064 C 
HETATM   30  C1  UNL     1       0.867  51.780 -28.384  1.00  0.00     0.045 C 
BRANCH  29  31
HETATM   31  C30 UNL     1       2.304  51.407 -26.322  1.00  0.00     0.197 C 
BRANCH  31  32
HETATM   32  O2  UNL     1       3.273  51.436 -27.362  1.00  0.00    -0.397 OA
HETATM   33  H48 UNL     1       2.810  51.666 -28.186  1.00  0.00     0.209 HD
ENDBRANCH  31  32
ENDBRANCH  29  31
ENDBRANCH  27  28
ENDBRANCH  26  27
ENDBRANCH  24  26
ENDBRANCH   1  24
TORSDOF 6
ENDMDL
