MODEL 1
REMARK minimizedAffinity -8.15933895
REMARK CNNscore 0.662954032
REMARK CNNaffinity 7.18661547
REMARK  12 active torsions:
REMARK  status: ('A' for Active; 'I' for Inactive)
REMARK    1  A    between atoms: C19_21  and  O3_22 
REMARK    2  A    between atoms: C19_21  and  C20_23 
REMARK    3  A    between atoms: C20_23  and  C21_25 
REMARK    4  A    between atoms: C21_25  and  O5_26 
REMARK    5  A    between atoms: O5_26  and  C22_27 
REMARK    6  A    between atoms: C22_27  and  C23_29 
REMARK    7  A    between atoms: C23_29  and  C24_30 
REMARK    8  A    between atoms: C24_30  and  C25_31 
REMARK       I    between atoms: C25_31  and  N1_33 
REMARK    9  A    between atoms: N1_33  and  C26_34 
REMARK   10  A    between atoms: C26_34  and  C27_35 
REMARK   11  A    between atoms: C30_38  and  C31_39 
REMARK   12  A    between atoms: C31_39  and  O9_41 
ROOT
HETATM    1  C1  UNL     1       2.791   7.548  12.261  1.00  0.00     0.021 C 
HETATM    2  C2  UNL     1       1.527   6.862  11.698  1.00  0.00    -0.009 C 
HETATM    3  C3  UNL     1       1.886   5.381  11.362  1.00  0.00     0.022 C 
HETATM    4  C4  UNL     1       2.890   5.225  10.223  1.00  0.00     0.084 C 
HETATM    5  C5  UNL     1       2.523   6.056   9.017  1.00  0.00     0.149 C 
HETATM    6  O1  UNL     1       3.002   5.834   7.907  1.00  0.00    -0.293 OA
HETATM    7  C6  UNL     1       1.573   7.179   9.185  1.00  0.00     0.053 C 
HETATM    8  C7  UNL     1       1.115   7.543  10.395  1.00  0.00    -0.067 C 
HETATM    9  C8  UNL     1       0.068   8.609  10.533  1.00  0.00     0.035 C 
HETATM   10  C9  UNL     1      -1.237   7.993  11.044  1.00  0.00     0.010 C 
HETATM   11  C10 UNL     1      -1.048   6.809  12.028  1.00  0.00     0.003 C 
HETATM   12  C11 UNL     1       0.335   6.838  12.728  1.00  0.00     0.072 C 
HETATM   13  C12 UNL     1       0.242   7.920  13.804  1.00  0.00     0.133 C 
HETATM   14  O2  UNL     1       0.897   8.957  13.815  1.00  0.00    -0.297 OA
HETATM   15  C13 UNL     1      -0.776   7.639  14.891  1.00  0.00     0.091 C 
HETATM   16  C14 UNL     1      -2.200   7.582  14.288  1.00  0.00     0.005 C 
HETATM   17  C15 UNL     1      -2.650   9.030  14.021  1.00  0.00     0.019 C 
HETATM   18  C16 UNL     1      -2.238   6.684  13.016  1.00  0.00     0.002 C 
HETATM   19  C17 UNL     1      -2.365   5.247  13.569  1.00  0.00     0.009 C 
HETATM   20  C18 UNL     1      -2.874   5.354  15.006  1.00  0.00     0.047 C 
HETATM   21  C19 UNL     1      -3.190   6.840  15.246  1.00  0.00     0.128 C 
ENDROOT
BRANCH  21  22
HETATM   22  O3  UNL     1      -2.904   7.164  16.600  1.00  0.00    -0.381 OA
HETATM   23  H25 UNL     1      -3.251   6.453  17.171  1.00  0.00     0.211 HD
ENDBRANCH  21  22
BRANCH  21  24
HETATM   24  C20 UNL     1      -4.690   7.099  14.921  1.00  0.00     0.185 C 
HETATM   25  O4  UNL     1      -5.193   8.218  15.066  1.00  0.00    -0.292 OA
BRANCH  24  26
HETATM   26  C21 UNL     1      -5.511   5.904  14.440  1.00  0.00     0.260 C 
BRANCH  26  27
HETATM   27  O5  UNL     1      -6.454   6.318  13.451  1.00  0.00    -0.314 OA
BRANCH  27  28
HETATM   28  C22 UNL     1      -7.564   5.536  13.388  1.00  0.00     0.259 C 
HETATM   29  O6  UNL     1      -7.560   4.311  13.367  1.00  0.00    -0.265 OA
BRANCH  28  30
HETATM   30  C23 UNL     1      -8.804   6.394  13.384  1.00  0.00     0.120 C 
BRANCH  30  31
HETATM   31  C24 UNL     1      -8.738   7.457  14.474  1.00  0.00     0.112 C 
BRANCH  31  32
HETATM   32  C25 UNL     1     -10.109   7.756  15.052  1.00  0.00     0.218 C 
HETATM   33  O7  UNL     1     -10.950   6.892  15.269  1.00  0.00    -0.274 OA
HETATM   34  N1  UNL     1     -10.309   9.096  15.294  1.00  0.00    -0.357 N 
HETATM   35  H32 UNL     1      -9.627   9.765  14.964  1.00  0.00     0.162 HD
BRANCH  34  36
HETATM   36  C26 UNL     1     -11.570   9.606  15.779  1.00  0.00     0.161 C 
BRANCH  36  37
HETATM   37  C27 UNL     1     -12.619   9.575  14.697  1.00  0.00    -0.040 A 
HETATM   38  C28 UNL     1     -12.271   9.768  13.353  1.00  0.00     0.010 A 
HETATM   39  C29 UNL     1     -13.249   9.730  12.354  1.00  0.00     0.019 A 
HETATM   40  C30 UNL     1     -14.588   9.494  12.690  1.00  0.00     0.037 A 
HETATM   41  C32 UNL     1     -14.940   9.288  14.028  1.00  0.00     0.019 A 
HETATM   42  C33 UNL     1     -13.960   9.327  15.024  1.00  0.00     0.010 A 
BRANCH  40  43
HETATM   43  C31 UNL     1     -15.660   9.453  11.667  1.00  0.00     0.176 C 
HETATM   44  O8  UNL     1     -16.403  10.371  11.373  1.00  0.00    -0.646 OA
BRANCH  43  45
HETATM   45  O9  UNL     1     -15.749   8.262  11.049  1.00  0.00    -0.773 OA
HETATM   46  H37 UNL     1     -16.480   8.389  10.408  1.00  0.00     0.167 HD
ENDBRANCH  43  45
ENDBRANCH  40  43
ENDBRANCH  36  37
ENDBRANCH  34  36
ENDBRANCH  31  32
ENDBRANCH  30  31
ENDBRANCH  28  30
ENDBRANCH  27  28
ENDBRANCH  26  27
ENDBRANCH  24  26
ENDBRANCH  21  24
TORSDOF 12
ENDMDL
