MODEL 1
REMARK minimizedAffinity -9.79057789
REMARK CNNscore 0.845122814
REMARK CNNaffinity 7.28583288
REMARK  8 active torsions:
REMARK  status: ('A' for Active; 'I' for Inactive)
REMARK    1  A    between atoms: C5_5  and  O1_6 
REMARK    2  A    between atoms: C9_10  and  C10_11 
REMARK    3  A    between atoms: C10_11  and  C11_12 
REMARK    4  A    between atoms: C11_12  and  C12_13 
REMARK    5  A    between atoms: C14_15  and  C15_16 
REMARK    6  A    between atoms: C15_16  and  C16_17 
REMARK    7  A    between atoms: C16_17  and  C17_18 
REMARK    8  A    between atoms: C23_24  and  O2_25 
ROOT
HETATM    1  C12 UNL     1      -1.863   8.359  12.797  1.00  0.00    -0.087 C 
HETATM    2  C13 UNL     1      -1.015   8.153  14.027  1.00  0.00     0.043 C 
HETATM    3  C14 UNL     1      -3.202   8.536  12.823  1.00  0.00    -0.024 C 
ENDROOT
BRANCH   3   4
HETATM    4  C15 UNL     1      -4.069   8.559  14.052  1.00  0.00     0.030 C 
BRANCH   4   5
HETATM    5  C16 UNL     1      -5.529   8.112  13.857  1.00  0.00     0.042 C 
BRANCH   5   6
HETATM    6  C17 UNL     1      -5.872   6.608  14.051  1.00  0.00     0.065 C 
HETATM    7  C18 UNL     1      -5.548   6.146  15.483  1.00  0.00     0.046 C 
HETATM    8  C19 UNL     1      -7.371   6.448  13.720  1.00  0.00     0.043 C 
HETATM    9  C20 UNL     1      -7.794   4.990  13.726  1.00  0.00     0.044 C 
HETATM   10  C21 UNL     1      -6.802   4.159  12.971  1.00  0.00    -0.021 A 
HETATM   11  C22 UNL     1      -7.169   2.878  12.533  1.00  0.00     0.046 A 
HETATM   12  C27 UNL     1      -5.504   4.628  12.727  1.00  0.00     0.082 A 
HETATM   13  C23 UNL     1      -6.253   2.093  11.841  1.00  0.00     0.066 A 
HETATM   14  C24 UNL     1      -4.972   2.560  11.580  1.00  0.00     0.046 A 
HETATM   15  C25 UNL     1      -4.587   3.834  12.017  1.00  0.00    -0.025 A 
HETATM   16  C26 UNL     1      -3.197   4.329  11.745  1.00  0.00     0.051 C 
HETATM   17  O3  UNL     1      -5.060   5.863  13.126  1.00  0.00    -0.340 OA
BRANCH  13  18
HETATM   18  O2  UNL     1      -6.579   0.847  11.395  1.00  0.00    -0.361 OA
HETATM   19  H36 UNL     1      -7.509   0.673  11.613  1.00  0.00     0.217 HD
ENDBRANCH  13  18
ENDBRANCH   5   6
ENDBRANCH   4   5
ENDBRANCH   3   4
BRANCH   1  20
HETATM   20  C11 UNL     1      -1.088   8.453  11.492  1.00  0.00     0.034 C 
BRANCH  20  21
HETATM   21  C10 UNL     1       0.421   8.668  11.696  1.00  0.00     0.014 C 
BRANCH  21  22
HETATM   22  C9  UNL     1       1.281   8.132  10.519  1.00  0.00     0.024 C 
HETATM   23  C2  UNL     1       0.757   8.383   9.109  1.00  0.00    -0.084 C 
HETATM   24  C1  UNL     1      -0.511   8.674   8.780  1.00  0.00     0.015 C 
HETATM   25  C3  UNL     1       1.807   8.197   8.031  1.00  0.00     0.036 C 
HETATM   26  C4  UNL     1       2.791   7.077   8.382  1.00  0.00     0.037 C 
HETATM   27  C5  UNL     1       2.131   6.023   9.272  1.00  0.00     0.127 C 
HETATM   28  C6  UNL     1       1.681   6.607  10.661  1.00  0.00    -0.014 C 
HETATM   29  C7  UNL     1       2.820   6.488  11.704  1.00  0.00     0.018 C 
HETATM   30  C8  UNL     1       0.505   5.739  11.166  1.00  0.00     0.018 C 
BRANCH  27  31
HETATM   31  O1  UNL     1       3.000   4.902   9.415  1.00  0.00    -0.395 OA
HETATM   32  H8  UNL     1       3.879   5.229   9.671  1.00  0.00     0.210 HD
ENDBRANCH  27  31
ENDBRANCH  21  22
ENDBRANCH  20  21
ENDBRANCH   1  20
TORSDOF 8
ENDMDL
