MODEL 1
REMARK minimizedAffinity -7.73220634
REMARK  12 active torsions:
REMARK  status: ('A' for Active; 'I' for Inactive)
REMARK    1  A    between atoms: C4_5  and  O2_6 
REMARK    2  A    between atoms: C8_11  and  O4_12 
REMARK    3  A    between atoms: O4_12  and  C9_13 
REMARK    4  A    between atoms: C9_13  and  C10_15 
REMARK    5  A    between atoms: C10_15  and  O6_16 
REMARK    6  A    between atoms: C10_15  and  C11_17 
REMARK    7  A    between atoms: C10_15  and  C12_19 
REMARK    8  A    between atoms: C11_17  and  O7_18 
REMARK    9  A    between atoms: C12_19  and  C13_20 
REMARK   10  A    between atoms: C13_20  and  C15_22 
REMARK   11  A    between atoms: C15_22  and  C16_23 
REMARK   12  A    between atoms: C16_23  and  C18_25 
ROOT
HETATM    1  C1  UNL     1       4.207   8.141  10.004  1.00  0.00     0.017 C 
HETATM    2  C2  UNL     1       3.200   7.329  10.350  1.00  0.00    -0.056 C 
HETATM    3  C3  UNL     1       3.185   5.848  10.239  1.00  0.00     0.205 C 
HETATM    4  O1  UNL     1       1.838   5.498   9.931  1.00  0.00    -0.348 OA
HETATM    5  C4  UNL     1       0.956   6.532  10.410  1.00  0.00     0.201 C 
HETATM    6  C6  UNL     1       0.115   5.971  11.527  1.00  0.00     0.223 A 
HETATM    7  O3  UNL     1       0.834   5.683  12.732  1.00  0.00    -0.360 OA
HETATM    8  C7  UNL     1      -0.158   6.740  12.806  1.00  0.00     0.127 A 
HETATM    9  C8  UNL     1      -1.277   6.343  13.733  1.00  0.00     0.170 C 
HETATM   10  C20 UNL     1      -0.871   6.535  15.204  1.00  0.00     0.036 C 
HETATM   11  C21 UNL     1       0.464   7.265  15.387  1.00  0.00     0.007 C 
HETATM   12  C22 UNL     1       0.593   8.510  14.489  1.00  0.00    -0.007 C 
HETATM   13  C23 UNL     1      -0.349   9.605  15.014  1.00  0.00     0.011 C 
HETATM   14  C24 UNL     1       0.438   8.143  12.958  1.00  0.00    -0.003 C 
HETATM   15  C25 UNL     1      -0.432   9.167  12.195  1.00  0.00     0.019 C 
HETATM   16  C26 UNL     1       1.853   8.138  12.303  1.00  0.00     0.027 C 
HETATM   17  C27 UNL     1       1.837   7.753  10.809  1.00  0.00     0.082 C 
ENDROOT
BRANCH   9  18
HETATM   18  O4  UNL     1      -2.455   7.134  13.482  1.00  0.00    -0.310 OA
BRANCH  18  19
HETATM   19  C9  UNL     1      -3.520   6.890  14.286  1.00  0.00     0.296 C 
HETATM   20  O5  UNL     1      -3.532   6.101  15.229  1.00  0.00    -0.262 OA
BRANCH  19  21
HETATM   21  C10 UNL     1      -4.757   7.727  13.918  1.00  0.00     0.166 C 
BRANCH  21  22
HETATM   22  O6  UNL     1      -4.347   8.771  13.008  1.00  0.00    -0.377 OA
HETATM   23  H10 UNL     1      -3.393   8.925  13.174  1.00  0.00     0.211 HD
ENDBRANCH  21  22
BRANCH  21  24
HETATM   24  C11 UNL     1      -5.252   8.455  15.187  1.00  0.00     0.212 C 
BRANCH  24  25
HETATM   25  O7  UNL     1      -4.274   8.565  16.216  1.00  0.00    -0.397 OA
HETATM   26  H13 UNL     1      -4.278   7.727  16.712  1.00  0.00     0.209 HD
ENDBRANCH  24  25
ENDBRANCH  21  24
BRANCH  21  27
HETATM   27  C12 UNL     1      -5.866   6.900  13.232  1.00  0.00     0.055 C 
BRANCH  27  28
HETATM   28  C13 UNL     1      -6.252   5.536  13.874  1.00  0.00    -0.015 C 
HETATM   29  C14 UNL     1      -7.782   5.477  13.987  1.00  0.00     0.010 C 
BRANCH  28  30
HETATM   30  C15 UNL     1      -5.690   4.318  13.110  1.00  0.00     0.008 C 
BRANCH  30  31
HETATM   31  C16 UNL     1      -6.668   3.582  12.162  1.00  0.00    -0.019 C 
HETATM   32  C17 UNL     1      -7.586   2.626  12.932  1.00  0.00     0.010 C 
BRANCH  31  33
HETATM   33  C18 UNL     1      -5.849   2.833  11.087  1.00  0.00    -0.000 C 
HETATM   34  C19 UNL     1      -5.703   1.342  11.351  1.00  0.00     0.005 C 
ENDBRANCH  31  33
ENDBRANCH  30  31
ENDBRANCH  28  30
ENDBRANCH  27  28
ENDBRANCH  21  27
ENDBRANCH  19  21
ENDBRANCH  18  19
ENDBRANCH   9  18
BRANCH   5  35
HETATM   35  O2  UNL     1       0.086   6.994   9.357  1.00  0.00    -0.357 OA
HETATM   36  C5  UNL     1       0.408   8.279   8.843  1.00  0.00     0.205 C 
ENDBRANCH   5  35
TORSDOF 12
ENDMDL
