MODEL 1
REMARK minimizedAffinity -9.29264736
REMARK  8 active torsions:
REMARK  status: ('A' for Active; 'I' for Inactive)
REMARK    1  A    between atoms: O1_2  and  C2_3 
REMARK    2  A    between atoms: C2_3  and  C5_6 
REMARK    3  A    between atoms: C6_7  and  C7_8 
REMARK    4  A    between atoms: C7_8  and  C8_9 
REMARK    5  A    between atoms: C8_9  and  C10_11 
REMARK    6  A    between atoms: C16_17  and  O2_18 
REMARK    7  A    between atoms: C19_21  and  C21_23 
REMARK    8  A    between atoms: C21_23  and  O3_24 
ROOT
HETATM    1  C10 UNL     1       0.105   8.300  14.242  1.00  0.00    -0.002 C 
HETATM    2  C11 UNL     1       0.043   6.979  14.986  1.00  0.00     0.006 C 
HETATM    3  C12 UNL     1      -1.169   7.138  15.893  1.00  0.00     0.011 C 
HETATM    4  C13 UNL     1      -2.166   8.147  15.207  1.00  0.00    -0.030 C 
HETATM    5  C14 UNL     1      -2.421   9.263  16.250  1.00  0.00     0.016 C 
HETATM    6  C15 UNL     1      -3.518   7.402  14.912  1.00  0.00     0.032 C 
HETATM    7  C16 UNL     1      -4.792   8.248  14.635  1.00  0.00     0.124 C 
HETATM    8  C17 UNL     1      -5.958   7.461  14.002  1.00  0.00     0.038 C 
HETATM    9  C18 UNL     1      -5.902   5.937  14.231  1.00  0.00     0.015 C 
HETATM   10  C19 UNL     1      -7.205   5.210  13.746  1.00  0.00     0.042 C 
HETATM   11  C20 UNL     1      -7.870   5.824  12.492  1.00  0.00     0.026 C 
HETATM   12  C22 UNL     1      -6.903   3.751  13.406  1.00  0.00     0.137 C 
HETATM   13  O4  UNL     1      -7.654   2.832  13.758  1.00  0.00    -0.297 OA
HETATM   14  C23 UNL     1      -5.700   3.439  12.543  1.00  0.00     0.080 C 
HETATM   15  C24 UNL     1      -4.802   4.643  12.301  1.00  0.00     0.018 C 
HETATM   16  C25 UNL     1      -4.609   5.407  13.586  1.00  0.00    -0.026 A 
HETATM   17  C26 UNL     1      -3.488   4.876  14.442  1.00  0.00     0.021 A 
HETATM   18  C27 UNL     1      -3.369   6.280  13.874  1.00  0.00    -0.025 A 
HETATM   19  C28 UNL     1      -2.392   6.537  12.748  1.00  0.00     0.011 C 
HETATM   20  C29 UNL     1      -1.954   7.991  12.632  1.00  0.00     0.011 C 
HETATM   21  C30 UNL     1      -1.392   8.651  13.918  1.00  0.00    -0.032 C 
HETATM   22  C31 UNL     1      -1.451  10.186  13.691  1.00  0.00     0.016 C 
ENDROOT
BRANCH   1  23
HETATM   23  C8  UNL     1       1.132   8.383  13.073  1.00  0.00    -0.010 C 
HETATM   24  C9  UNL     1       2.112   9.561  13.152  1.00  0.00     0.010 C 
BRANCH  23  25
HETATM   25  C7  UNL     1       0.431   8.453  11.692  1.00  0.00     0.031 C 
BRANCH  25  26
HETATM   26  C6  UNL     1       1.391   8.401  10.536  1.00  0.00    -0.027 C 
HETATM   27  C5  UNL     1       2.071   7.296  10.174  1.00  0.00     0.006 C 
BRANCH  27  28
HETATM   28  C2  UNL     1       3.079   7.178   9.044  1.00  0.00     0.070 C 
HETATM   29  C3  UNL     1       2.810   5.853   8.316  1.00  0.00     0.050 C 
HETATM   30  C4  UNL     1       2.869   8.371   8.100  1.00  0.00     0.050 C 
BRANCH  28  31
HETATM   31  O1  UNL     1       4.393   7.192   9.616  1.00  0.00    -0.382 OA
HETATM   32  C1  UNL     1       4.601   6.421  10.787  1.00  0.00     0.202 C 
ENDBRANCH  28  31
ENDBRANCH  27  28
ENDBRANCH  25  26
ENDBRANCH  23  25
ENDBRANCH   1  23
BRANCH   7  33
HETATM   33  O2  UNL     1      -4.538   9.377  13.804  1.00  0.00    -0.395 OA
HETATM   34  H28 UNL     1      -5.345   9.920  13.786  1.00  0.00     0.210 HD
ENDBRANCH   7  33
BRANCH  10  35
HETATM   35  C21 UNL     1      -8.280   5.250  14.862  1.00  0.00     0.181 C 
BRANCH  35  36
HETATM   36  O3  UNL     1      -7.904   4.483  15.997  1.00  0.00    -0.400 OA
HETATM   37  H37 UNL     1      -8.336   3.609  15.902  1.00  0.00     0.209 HD
ENDBRANCH  35  36
ENDBRANCH  10  35
TORSDOF 8
ENDMDL
