MODEL 1
REMARK minimizedAffinity -8.99804592
REMARK CNNscore 0.434867054
REMARK CNNaffinity 7.51597595
REMARK  19 active torsions:
REMARK  status: ('A' for Active; 'I' for Inactive)
REMARK    1  A    between atoms: O1_2  and  C2_3 
REMARK    2  A    between atoms: C2_3  and  C3_4 
REMARK    3  A    between atoms: C2_3  and  C28_36 
REMARK    4  A    between atoms: C3_4  and  C4_5 
REMARK    5  A    between atoms: C4_5  and  C6_7 
REMARK    6  A    between atoms: C6_7  and  O2_8 
REMARK    7  A    between atoms: C6_7  and  C7_9 
REMARK    8  A    between atoms: C8_10  and  C9_11 
REMARK    9  A    between atoms: C10_12  and  C11_13 
REMARK   10  A    between atoms: C11_13  and  N1_14 
REMARK       I    between atoms: N1_14  and  C12_15 
REMARK   11  A    between atoms: C12_15  and  C13_17 
REMARK   12  A    between atoms: C13_17  and  C16_20 
REMARK   13  A    between atoms: C16_20  and  O4_21 
REMARK   14  A    between atoms: C16_20  and  C17_22 
REMARK   15  A    between atoms: C19_24  and  C20_25 
REMARK   16  A    between atoms: C21_26  and  C22_27 
REMARK   17  A    between atoms: C23_28  and  C24_29 
REMARK   18  A    between atoms: C26_31  and  N2_33 
REMARK   19  A    between atoms: C28_36  and  O7_37 
ROOT
HETATM    1  C9  UNL     1      -5.965   2.618  11.713  1.00  0.00    -0.003 C 
HETATM    2  C10 UNL     1      -6.524   3.448  12.606  1.00  0.00    -0.007 C 
ENDROOT
BRANCH   1   3
HETATM    3  C8  UNL     1      -4.549   2.630  11.424  1.00  0.00    -0.002 C 
HETATM    4  C7  UNL     1      -3.907   3.698  10.918  1.00  0.00     0.005 C 
BRANCH   4   5
HETATM    5  C6  UNL     1      -2.438   3.765  10.574  1.00  0.00     0.144 C 
BRANCH   5   6
HETATM    6  C4  UNL     1      -1.534   4.412  11.652  1.00  0.00     0.016 C 
HETATM    7  C5  UNL     1      -2.370   5.203  12.679  1.00  0.00     0.013 C 
BRANCH   6   8
HETATM    8  C3  UNL     1      -0.403   5.331  11.128  1.00  0.00     0.042 C 
BRANCH   8   9
HETATM    9  C2  UNL     1       0.981   5.326  11.817  1.00  0.00     0.159 C 
BRANCH   9  10
HETATM   10  O1  UNL     1       0.853   5.095  13.235  1.00  0.00    -0.388 OA
HETATM   11  C1  UNL     1       0.340   6.229  13.932  1.00  0.00     0.202 C 
ENDBRANCH   9  10
BRANCH   9  12
HETATM   12  C28 UNL     1       1.939   6.562  11.648  1.00  0.00     0.133 C 
HETATM   13  C29 UNL     1       1.217   7.928  11.473  1.00  0.00     0.114 C 
HETATM   14  C30 UNL     1       1.979   9.137  12.019  1.00  0.00     0.023 C 
HETATM   15  C31 UNL     1       1.112   8.073   9.969  1.00  0.00     0.227 C 
HETATM   16  O8  UNL     1       0.331   8.799   9.380  1.00  0.00    -0.273 OA
HETATM   17  N3  UNL     1       2.080   7.266   9.397  1.00  0.00    -0.332 N 
HETATM   18  C32 UNL     1       2.163   7.046   7.971  1.00  0.00     0.154 C 
HETATM   19  C33 UNL     1       2.840   6.460  10.404  1.00  0.00     0.183 C 
HETATM   20  C34 UNL     1       3.362   5.065   9.967  1.00  0.00     0.294 C 
HETATM   21  C35 UNL     1       4.378   6.788  10.394  1.00  0.00     0.169 C 
HETATM   22  O9  UNL     1       2.899   3.971   9.730  1.00  0.00    -0.262 OA
HETATM   23  O10 UNL     1       4.651   5.462   9.845  1.00  0.00    -0.311 OA
HETATM   24  C36 UNL     1       5.227   6.998  11.635  1.00  0.00     0.043 C 
BRANCH  12  25
HETATM   25  O7  UNL     1       2.729   6.604  12.850  1.00  0.00    -0.383 OA
HETATM   26  H42 UNL     1       2.096   6.455  13.586  1.00  0.00     0.210 HD
ENDBRANCH  12  25
ENDBRANCH   9  12
ENDBRANCH   8   9
ENDBRANCH   6   8
ENDBRANCH   5   6
BRANCH   5  27
HETATM   27  O2  UNL     1      -1.944   2.446  10.312  1.00  0.00    -0.391 OA
HETATM   28  H12 UNL     1      -2.468   2.099   9.571  1.00  0.00     0.210 HD
ENDBRANCH   5  27
ENDBRANCH   4   5
ENDBRANCH   1   3
BRANCH   2  29
HETATM   29  C11 UNL     1      -7.986   3.475  12.924  1.00  0.00     0.149 C 
BRANCH  29  30
HETATM   30  N1  UNL     1      -8.198   4.484  13.932  1.00  0.00    -0.357 N 
HETATM   31  C12 UNL     1      -8.406   5.810  13.629  1.00  0.00     0.228 C 
HETATM   32  O3  UNL     1      -8.437   6.219  12.472  1.00  0.00    -0.273 OA
HETATM   33  H19 UNL     1      -8.111   4.223  14.913  1.00  0.00     0.162 HD
BRANCH  31  34
HETATM   34  C13 UNL     1      -8.607   6.736  14.850  1.00  0.00     0.063 C 
HETATM   35  C14 UNL     1      -8.171   5.956  16.113  1.00  0.00     0.028 C 
HETATM   36  C15 UNL     1      -7.676   7.950  14.679  1.00  0.00     0.028 C 
BRANCH  34  37
HETATM   37  C16 UNL     1     -10.122   7.104  14.920  1.00  0.00     0.164 C 
BRANCH  37  38
HETATM   38  O4  UNL     1     -10.911   6.128  14.220  1.00  0.00    -0.390 OA
HETATM   39  H27 UNL     1     -11.827   6.461  14.229  1.00  0.00     0.210 HD
ENDBRANCH  37  38
BRANCH  37  40
HETATM   40  C17 UNL     1     -10.536   8.482  14.407  1.00  0.00    -0.054 C 
HETATM   41  C18 UNL     1     -11.325   8.528  13.124  1.00  0.00     0.046 C 
HETATM   42  C19 UNL     1     -10.198   9.575  15.125  1.00  0.00     0.005 C 
BRANCH  42  43
HETATM   43  C20 UNL     1     -10.460  10.960  14.791  1.00  0.00     0.000 C 
HETATM   44  C21 UNL     1      -9.735  11.966  15.306  1.00  0.00     0.000 C 
BRANCH  44  45
HETATM   45  C22 UNL     1      -9.961  13.362  14.981  1.00  0.00     0.001 C 
HETATM   46  C23 UNL     1     -10.968  13.757  14.183  1.00  0.00     0.009 C 
BRANCH  46  47
HETATM   47  C24 UNL     1     -11.308  15.137  13.805  1.00  0.00    -0.034 C 
HETATM   48  C25 UNL     1     -10.556  16.230  14.543  1.00  0.00     0.050 C 
HETATM   49  C26 UNL     1     -12.239  15.378  12.849  1.00  0.00     0.082 C 
HETATM   50  C27 UNL     1     -13.070  14.472  11.999  1.00  0.00     0.075 C 
BRANCH  49  51
HETATM   51  N2  UNL     1     -12.550  16.766  12.560  1.00  0.00    -0.120 N 
HETATM   52  O5  UNL     1     -13.543  17.243  13.121  1.00  0.00    -0.532 OA
HETATM   53  O6  UNL     1     -11.782  17.366  11.797  1.00  0.00    -0.532 OA
ENDBRANCH  49  51
ENDBRANCH  46  47
ENDBRANCH  44  45
ENDBRANCH  42  43
ENDBRANCH  37  40
ENDBRANCH  34  37
ENDBRANCH  31  34
ENDBRANCH  29  30
ENDBRANCH   2  29
TORSDOF 19
ENDMDL
