MODEL 1
REMARK minimizedAffinity -8.13306522
REMARK CNNscore 0.855535746
REMARK CNNaffinity 7.64157248
REMARK  13 active torsions:
REMARK  status: ('A' for Active; 'I' for Inactive)
REMARK    1  A    between atoms: C4_4  and  C5_5 
REMARK    2  A    between atoms: C5_5  and  C6_6 
REMARK    3  A    between atoms: C6_6  and  C7_7 
REMARK    4  A    between atoms: C7_7  and  O1_9 
REMARK    5  A    between atoms: C7_7  and  C9_10 
REMARK    6  A    between atoms: C9_10  and  O2_11 
REMARK    7  A    between atoms: C9_10  and  C10_12 
REMARK    8  A    between atoms: C10_12  and  C11_13 
REMARK    9  A    between atoms: C11_13  and  C12_14 
REMARK   10  A    between atoms: C14_16  and  C15_17 
REMARK   11  A    between atoms: C15_17  and  C16_18 
REMARK   12  A    between atoms: C16_18  and  C17_19 
REMARK   13  A    between atoms: C23_25  and  O3_26 
ROOT
HETATM    1  C12 UNL     1      -2.812  48.395 -21.687  1.00  0.00    -0.087 C 
HETATM    2  C13 UNL     1      -4.115  49.045 -21.296  1.00  0.00     0.043 C 
HETATM    3  C14 UNL     1      -1.854  48.022 -20.811  1.00  0.00    -0.024 C 
ENDROOT
BRANCH   1   4
HETATM    4  C11 UNL     1      -2.641  48.229 -23.193  1.00  0.00     0.036 C 
BRANCH   4   5
HETATM    5  C10 UNL     1      -3.818  48.575 -24.109  1.00  0.00     0.039 C 
BRANCH   5   6
HETATM    6  C9  UNL     1      -3.611  49.699 -25.138  1.00  0.00     0.152 C 
BRANCH   6   7
HETATM    7  C7  UNL     1      -3.428  49.321 -26.645  1.00  0.00     0.080 C 
HETATM    8  C8  UNL     1      -4.589  48.483 -27.187  1.00  0.00     0.048 C 
BRANCH   7   9
HETATM    9  C6  UNL     1      -3.144  50.564 -27.525  1.00  0.00     0.044 C 
BRANCH   9  10
HETATM   10  C5  UNL     1      -2.156  51.602 -26.969  1.00  0.00     0.030 C 
BRANCH  10  11
HETATM   11  C4  UNL     1      -0.819  51.608 -27.656  1.00  0.00    -0.025 C 
HETATM   12  C2  UNL     1       0.401  51.671 -27.087  1.00  0.00    -0.091 C 
HETATM   13  C1  UNL     1       0.666  51.699 -25.607  1.00  0.00     0.042 C 
HETATM   14  C3  UNL     1       1.641  51.701 -27.940  1.00  0.00     0.042 C 
ENDBRANCH  10  11
ENDBRANCH   9  10
ENDBRANCH   7   9
BRANCH   7  15
HETATM   15  O1  UNL     1      -2.276  48.453 -26.686  1.00  0.00    -0.388 OA
HETATM   16  H15 UNL     1      -1.614  48.902 -26.119  1.00  0.00     0.210 HD
ENDBRANCH   7  15
ENDBRANCH   6   7
BRANCH   6  17
HETATM   17  O2  UNL     1      -4.788  50.544 -25.069  1.00  0.00    -0.393 OA
HETATM   18  H17 UNL     1      -4.822  50.911 -24.168  1.00  0.00     0.210 HD
ENDBRANCH   6  17
ENDBRANCH   5   6
ENDBRANCH   4   5
ENDBRANCH   1   4
BRANCH   3  19
HETATM   19  C15 UNL     1      -1.738  48.069 -19.302  1.00  0.00     0.030 C 
BRANCH  19  20
HETATM   20  C16 UNL     1      -0.880  49.145 -18.638  1.00  0.00     0.042 C 
BRANCH  20  21
HETATM   21  C17 UNL     1      -1.449  50.592 -18.613  1.00  0.00     0.065 C 
HETATM   22  C18 UNL     1      -2.936  50.463 -18.200  1.00  0.00     0.046 C 
HETATM   23  C19 UNL     1      -0.787  51.538 -17.596  1.00  0.00     0.043 C 
HETATM   24  C20 UNL     1       0.519  52.142 -18.072  1.00  0.00     0.044 C 
HETATM   25  C21 UNL     1       0.428  52.543 -19.510  1.00  0.00    -0.021 A 
HETATM   26  C22 UNL     1       1.365  53.447 -20.029  1.00  0.00     0.046 A 
HETATM   27  C27 UNL     1      -0.553  52.014 -20.354  1.00  0.00     0.082 A 
HETATM   28  C23 UNL     1       1.301  53.831 -21.363  1.00  0.00     0.066 A 
HETATM   29  C24 UNL     1       0.321  53.321 -22.206  1.00  0.00     0.046 A 
HETATM   30  C25 UNL     1      -0.616  52.404 -21.706  1.00  0.00    -0.025 A 
HETATM   31  C26 UNL     1      -1.671  51.840 -22.616  1.00  0.00     0.051 C 
HETATM   32  O4  UNL     1      -1.495  51.113 -19.949  1.00  0.00    -0.340 OA
BRANCH  28  33
HETATM   33  O3  UNL     1       2.228  54.727 -21.811  1.00  0.00    -0.361 OA
HETATM   34  H38 UNL     1       2.049  54.913 -22.747  1.00  0.00     0.217 HD
ENDBRANCH  28  33
ENDBRANCH  20  21
ENDBRANCH  19  20
ENDBRANCH   3  19
TORSDOF 13
ENDMDL
