MODEL 1
REMARK minimizedAffinity -6.66681767
REMARK CNNscore 0.609237731
REMARK CNNaffinity 6.40696192
REMARK  6 active torsions:
REMARK  status: ('A' for Active; 'I' for Inactive)
REMARK    1  A    between atoms: C4_4  and  C5_5 
REMARK    2  A    between atoms: C5_5  and  C6_6 
REMARK    3  A    between atoms: C6_6  and  C7_7 
REMARK    4  A    between atoms: C7_7  and  C9_9 
REMARK    5  A    between atoms: C24_24  and  O1_25 
REMARK    6  A    between atoms: C27_28  and  O2_29 
ROOT
HETATM    1  C9  UNL     1      -1.910  11.047  16.557  1.00  0.00    -0.002 C 
HETATM    2  C10 UNL     1      -0.818  10.869  17.645  1.00  0.00     0.007 C 
HETATM    3  C11 UNL     1       0.350  10.099  16.985  1.00  0.00     0.015 C 
HETATM    4  C12 UNL     1       0.068  10.172  15.472  1.00  0.00    -0.013 C 
HETATM    5  C13 UNL     1       0.609  11.549  14.975  1.00  0.00     0.021 C 
HETATM    6  C14 UNL     1       0.698   9.152  14.527  1.00  0.00    -0.065 C 
HETATM    7  C15 UNL     1       0.079   8.840  13.357  1.00  0.00    -0.068 C 
HETATM    8  C16 UNL     1      -1.325   9.375  13.022  1.00  0.00     0.036 C 
HETATM    9  C17 UNL     1      -2.006  10.294  14.059  1.00  0.00     0.015 C 
HETATM   10  C18 UNL     1      -1.499  10.006  15.475  1.00  0.00    -0.029 C 
HETATM   11  C19 UNL     1      -1.942   8.567  15.870  1.00  0.00     0.016 C 
HETATM   12  C20 UNL     1       0.709   7.853  12.337  1.00  0.00    -0.014 C 
HETATM   13  C21 UNL     1      -0.038   6.508  12.538  1.00  0.00     0.020 C 
HETATM   14  C22 UNL     1       0.530   8.354  10.868  1.00  0.00     0.016 C 
HETATM   15  C23 UNL     1       1.712   8.086   9.922  1.00  0.00     0.033 C 
HETATM   16  C24 UNL     1       2.434   6.779  10.198  1.00  0.00     0.118 C 
HETATM   17  C25 UNL     1       2.909   6.672  11.652  1.00  0.00     0.039 C 
HETATM   18  C26 UNL     1       2.238   7.701  12.592  1.00  0.00     0.029 C 
HETATM   19  C27 UNL     1       2.541   7.421  14.066  1.00  0.00     0.127 C 
HETATM   20  C28 UNL     1       2.026   8.565  14.946  1.00  0.00     0.067 C 
ENDROOT
BRANCH   1  21
HETATM   21  C7  UNL     1      -3.373  11.153  17.073  1.00  0.00    -0.014 C 
HETATM   22  C8  UNL     1      -4.300   9.975  16.742  1.00  0.00     0.010 C 
BRANCH  21  23
HETATM   23  C6  UNL     1      -3.429  11.347  18.615  1.00  0.00     0.008 C 
BRANCH  23  24
HETATM   24  C5  UNL     1      -3.621  12.796  19.079  1.00  0.00     0.028 C 
BRANCH  24  25
HETATM   25  C4  UNL     1      -4.853  12.919  19.936  1.00  0.00    -0.025 C 
HETATM   26  C2  UNL     1      -6.019  13.525  19.637  1.00  0.00    -0.091 C 
HETATM   27  C1  UNL     1      -7.160  13.515  20.621  1.00  0.00     0.042 C 
HETATM   28  C3  UNL     1      -6.317  14.246  18.352  1.00  0.00     0.042 C 
ENDBRANCH  24  25
ENDBRANCH  23  24
ENDBRANCH  21  23
ENDBRANCH   1  21
BRANCH  19  29
HETATM   29  O2  UNL     1       3.950   7.274  14.271  1.00  0.00    -0.395 OA
HETATM   30  H44 UNL     1       4.377   8.104  13.999  1.00  0.00     0.210 HD
ENDBRANCH  19  29
BRANCH  16  31
HETATM   31  O1  UNL     1       1.572   5.689   9.889  1.00  0.00    -0.396 OA
HETATM   32  H39 UNL     1       1.344   5.751   8.946  1.00  0.00     0.210 HD
ENDBRANCH  16  31
TORSDOF 6
ENDMDL
