MODEL 1
REMARK minimizedAffinity -8.22874165
REMARK CNNscore 0.44834742
REMARK CNNaffinity 6.87314272
REMARK  13 active torsions:
REMARK  status: ('A' for Active; 'I' for Inactive)
REMARK    1  A    between atoms: C3_3  and  O1_4 
REMARK    2  A    between atoms: N1_14  and  O2_16 
REMARK    3  A    between atoms: O2_16  and  C13_17 
REMARK    4  A    between atoms: C13_17  and  C14_18 
REMARK       I    between atoms: C14_18  and  N2_20 
REMARK    5  A    between atoms: N2_20  and  C15_21 
REMARK    6  A    between atoms: C15_21  and  C16_22 
REMARK    7  A    between atoms: C15_21  and  C21_32 
REMARK       I    between atoms: C16_22  and  N3_24 
REMARK    8  A    between atoms: N3_24  and  C17_25 
REMARK    9  A    between atoms: C17_25  and  C18_26 
REMARK   10  A    between atoms: C17_25  and  C19_28 
REMARK   11  A    between atoms: C18_26  and  S1_27 
REMARK   12  A    between atoms: C19_28  and  C20_29 
REMARK   13  A    between atoms: C20_29  and  O6_31 
ROOT
HETATM    1  C1  UNL     1      -0.045  55.558 -27.146  1.00  0.00     0.015 C 
HETATM    2  C2  UNL     1      -0.263  54.381 -27.022  1.00  0.00    -0.078 C 
HETATM    3  C3  UNL     1      -0.515  52.940 -26.862  1.00  0.00     0.128 C 
HETATM    4  C4  UNL     1       0.628  52.106 -27.435  1.00  0.00     0.052 C 
HETATM    5  C5  UNL     1       0.384  50.707 -26.859  1.00  0.00     0.010 C 
HETATM    6  C6  UNL     1      -0.359  50.902 -25.514  1.00  0.00     0.002 C 
HETATM    7  C7  UNL     1      -1.541  49.921 -25.250  1.00  0.00    -0.004 C 
HETATM    8  C8  UNL     1      -2.343  49.453 -26.483  1.00  0.00     0.010 C 
HETATM    9  C9  UNL     1      -3.396  48.404 -26.124  1.00  0.00     0.035 C 
HETATM   10  C10 UNL     1      -4.281  48.770 -24.961  1.00  0.00    -0.069 C 
HETATM   11  C11 UNL     1      -5.585  48.433 -24.998  1.00  0.00     0.030 C 
HETATM   12  C12 UNL     1      -6.481  48.591 -23.813  1.00  0.00     0.032 C 
HETATM   13  N1  UNL     1      -7.725  48.225 -23.748  1.00  0.00    -0.271 N 
ATOM     14  H1  UNL     1      -8.317  48.363 -22.929  1.00  0.00     0.194 HD
HETATM   15  C24 UNL     1      -5.875  49.163 -22.545  1.00  0.00     0.060 C 
HETATM   16  C25 UNL     1      -4.700  50.074 -22.858  1.00  0.00     0.020 C 
HETATM   17  C26 UNL     1      -3.612  49.412 -23.751  1.00  0.00    -0.016 C 
HETATM   18  C27 UNL     1      -2.935  48.281 -22.930  1.00  0.00     0.020 C 
HETATM   19  C28 UNL     1      -2.500  50.463 -24.155  1.00  0.00     0.002 C 
HETATM   20  C29 UNL     1      -3.023  51.834 -24.624  1.00  0.00     0.007 C 
HETATM   21  C30 UNL     1      -1.905  52.863 -24.669  1.00  0.00     0.014 C 
HETATM   22  C31 UNL     1      -0.604  52.447 -25.385  1.00  0.00     0.003 C 
HETATM   23  C32 UNL     1       0.566  53.041 -24.536  1.00  0.00     0.020 C 
ENDROOT
BRANCH   3  24
HETATM   24  O1  UNL     1      -1.704  52.605 -27.577  1.00  0.00    -0.377 OA
HETATM   25  H2  UNL     1      -2.389  53.248 -27.317  1.00  0.00     0.211 HD
ENDBRANCH   3  24
BRANCH  13  26
HETATM   26  O2  UNL     1      -8.163  47.617 -24.935  1.00  0.00    -0.271 OA
BRANCH  26  27
HETATM   27  C13 UNL     1      -9.039  46.549 -24.603  1.00  0.00     0.303 C 
BRANCH  27  28
HETATM   28  C14 UNL     1      -9.826  46.127 -25.833  1.00  0.00     0.244 C 
HETATM   29  O3  UNL     1      -9.568  45.101 -26.463  1.00  0.00    -0.271 OA
HETATM   30  N2  UNL     1     -10.887  46.962 -26.153  1.00  0.00    -0.346 N 
HETATM   31  H16 UNL     1     -11.237  47.523 -25.384  1.00  0.00     0.163 HD
BRANCH  30  32
HETATM   32  C15 UNL     1     -11.881  46.498 -27.116  1.00  0.00     0.180 C 
BRANCH  32  33
HETATM   33  C16 UNL     1     -13.274  46.602 -26.458  1.00  0.00     0.241 C 
HETATM   34  O4  UNL     1     -13.715  47.658 -26.006  1.00  0.00    -0.271 OA
HETATM   35  N3  UNL     1     -13.998  45.430 -26.471  1.00  0.00    -0.353 N 
HETATM   36  H18 UNL     1     -13.638  44.631 -26.985  1.00  0.00     0.163 HD
BRANCH  35  37
HETATM   37  C17 UNL     1     -15.377  45.351 -25.992  1.00  0.00     0.103 C 
BRANCH  37  38
HETATM   38  C18 UNL     1     -16.368  45.087 -27.145  1.00  0.00     0.096 C 
BRANCH  38  39
HETATM   39  S1  UNL     1     -17.291  43.514 -27.016  1.00  0.00    -0.180 SA
HETATM   40  H22 UNL     1     -18.141  43.758 -28.026  1.00  0.00     0.101 HD
ENDBRANCH  38  39
ENDBRANCH  37  38
BRANCH  37  41
HETATM   41  C19 UNL     1     -15.757  46.524 -25.084  1.00  0.00     0.136 C 
BRANCH  41  42
HETATM   42  C20 UNL     1     -17.178  46.510 -24.612  1.00  0.00     0.141 C 
HETATM   43  O5  UNL     1     -18.054  47.286 -24.959  1.00  0.00    -0.650 OA
BRANCH  42  44
HETATM   44  O6  UNL     1     -17.437  45.529 -23.724  1.00  0.00    -0.776 OA
HETATM   45  H25 UNL     1     -18.386  45.652 -23.510  1.00  0.00     0.167 HD
ENDBRANCH  42  44
ENDBRANCH  41  42
ENDBRANCH  37  41
ENDBRANCH  35  37
ENDBRANCH  32  33
BRANCH  32  46
HETATM   46  C21 UNL     1     -11.841  47.264 -28.457  1.00  0.00     0.009 C 
HETATM   47  C22 UNL     1     -10.461  47.823 -28.812  1.00  0.00     0.012 C 
HETATM   48  C23 UNL     1     -12.357  46.391 -29.602  1.00  0.00     0.012 C 
ENDBRANCH  32  46
ENDBRANCH  30  32
ENDBRANCH  27  28
ENDBRANCH  26  27
ENDBRANCH  13  26
TORSDOF 13
ENDMDL
