MODEL 1
REMARK minimizedAffinity -8.76571274
REMARK CNNscore 0.659206152
REMARK CNNaffinity 6.93520403
REMARK  9 active torsions:
REMARK  status: ('A' for Active; 'I' for Inactive)
REMARK    1  A    between atoms: C2_2  and  C4_4 
REMARK    2  A    between atoms: C4_4  and  O1_6 
REMARK    3  A    between atoms: C4_4  and  C6_7 
REMARK    4  A    between atoms: C7_9  and  C8_10 
REMARK    5  A    between atoms: C8_10  and  O3_12 
REMARK    6  A    between atoms: C8_10  and  C10_13 
REMARK    7  A    between atoms: C13_16  and  O4_17 
REMARK    8  A    between atoms: C19_24  and  O6_25 
REMARK    9  A    between atoms: C22_28  and  C23_29 
ROOT
HETATM    1  C10 UNL     1       3.615  10.053  15.803  1.00  0.00     0.034 C 
HETATM    2  C11 UNL     1       2.532  11.145  16.057  1.00  0.00     0.012 C 
HETATM    3  C12 UNL     1       1.310  10.793  15.189  1.00  0.00     0.044 C 
HETATM    4  C13 UNL     1       1.594   9.371  14.704  1.00  0.00     0.089 C 
HETATM    5  C14 UNL     1       0.824   8.760  13.555  1.00  0.00    -0.037 C 
HETATM    6  C15 UNL     1      -0.258   9.357  13.032  1.00  0.00     0.057 C 
HETATM    7  C16 UNL     1      -1.158   8.628  12.123  1.00  0.00     0.154 C 
HETATM    8  O5  UNL     1      -2.102   9.225  11.609  1.00  0.00    -0.293 OA
HETATM    9  C17 UNL     1      -0.951   7.140  11.934  1.00  0.00     0.071 C 
HETATM   10  C18 UNL     1      -1.702   6.363  13.025  1.00  0.00     0.045 C 
HETATM   11  C19 UNL     1      -1.650   4.854  12.770  1.00  0.00     0.119 C 
HETATM   12  C20 UNL     1      -0.622   4.449  11.715  1.00  0.00     0.032 C 
HETATM   13  C21 UNL     1       0.699   5.189  11.903  1.00  0.00     0.014 C 
HETATM   14  C22 UNL     1       0.569   6.756  11.836  1.00  0.00    -0.018 C 
HETATM   15  C29 UNL     1       1.298   7.358  13.142  1.00  0.00     0.027 C 
HETATM   16  C30 UNL     1       2.845   7.273  13.090  1.00  0.00     0.011 C 
HETATM   17  C31 UNL     1       3.580   7.926  14.273  1.00  0.00     0.014 C 
HETATM   18  C32 UNL     1       3.133   9.390  14.470  1.00  0.00    -0.002 C 
HETATM   19  C33 UNL     1       3.524  10.239  13.234  1.00  0.00     0.019 C 
ENDROOT
BRANCH   1  20
HETATM   20  C8  UNL     1       5.063  10.604  15.952  1.00  0.00     0.087 C 
HETATM   21  C9  UNL     1       5.258  11.959  15.262  1.00  0.00     0.049 C 
BRANCH  20  22
HETATM   22  C7  UNL     1       6.042   9.619  15.333  1.00  0.00     0.188 A 
HETATM   23  C6  UNL     1       7.540   9.695  15.553  1.00  0.00     0.188 A 
HETATM   24  O2  UNL     1       6.932  10.191  14.354  1.00  0.00    -0.369 OA
BRANCH  23  25
HETATM   25  C4  UNL     1       8.447   8.487  15.414  1.00  0.00     0.086 C 
HETATM   26  C5  UNL     1       8.019   7.524  14.296  1.00  0.00     0.049 C 
BRANCH  25  27
HETATM   27  C2  UNL     1       9.932   8.961  15.267  1.00  0.00     0.014 C 
HETATM   28  C1  UNL     1      10.080  10.488  15.253  1.00  0.00     0.012 C 
HETATM   29  C3  UNL     1      10.653   8.373  14.046  1.00  0.00     0.012 C 
ENDBRANCH  25  27
BRANCH  25  30
HETATM   30  O1  UNL     1       8.326   7.781  16.659  1.00  0.00    -0.387 OA
HETATM   31  H11 UNL     1       8.718   6.898  16.547  1.00  0.00     0.210 HD
ENDBRANCH  25  30
ENDBRANCH  23  25
ENDBRANCH  20  22
BRANCH  20  32
HETATM   32  O3  UNL     1       5.386  10.790  17.333  1.00  0.00    -0.387 OA
HETATM   33  H17 UNL     1       6.351  10.928  17.366  1.00  0.00     0.210 HD
ENDBRANCH  20  32
ENDBRANCH   1  20
BRANCH   4  34
HETATM   34  O4  UNL     1       1.289   8.509  15.823  1.00  0.00    -0.384 OA
HETATM   35  H23 UNL     1       0.342   8.620  16.021  1.00  0.00     0.211 HD
ENDBRANCH   4  34
BRANCH  14  36
HETATM   36  C23 UNL     1       1.205   7.350  10.481  1.00  0.00    -0.005 C 
HETATM   37  C24 UNL     1       2.160   6.421   9.692  1.00  0.00     0.005 C 
HETATM   38  C25 UNL     1       3.014   7.221   8.702  1.00  0.00     0.000 C 
HETATM   39  C26 UNL     1       2.263   8.401   8.085  1.00  0.00     0.000 C 
HETATM   40  C27 UNL     1       0.764   8.143   8.043  1.00  0.00     0.000 C 
HETATM   41  C28 UNL     1       0.175   7.871   9.437  1.00  0.00     0.005 C 
ENDBRANCH  14  36
BRANCH  11  42
HETATM   42  O6  UNL     1      -2.934   4.387  12.363  1.00  0.00    -0.396 OA
HETATM   43  H29 UNL     1      -3.195   4.874  11.562  1.00  0.00     0.210 HD
ENDBRANCH  11  42
TORSDOF 9
ENDMDL
