MODEL 1
REMARK minimizedAffinity -8.1102047
REMARK  12 active torsions:
REMARK  status: ('A' for Active; 'I' for Inactive)
REMARK    1  A    between atoms: O1_2  and  C2_3 
REMARK    2  A    between atoms: C3_6  and  C4_7 
REMARK    3  A    between atoms: C4_7  and  C5_8 
REMARK    4  A    between atoms: C6_9  and  C8_11 
REMARK    5  A    between atoms: C8_11  and  C9_12 
REMARK    6  A    between atoms: C10_13  and  C11_14 
REMARK    7  A    between atoms: C13_16  and  C14_17 
REMARK    8  A    between atoms: C14_17  and  C16_19 
REMARK    9  A    between atoms: C16_19  and  O2_20 
REMARK   10  A    between atoms: C16_19  and  C18_22 
REMARK   11  A    between atoms: C24_29  and  O4_30 
REMARK   12  A    between atoms: C25_31  and  O5_32 
ROOT
HETATM    1  C5  UNL     1      -5.817   4.332  12.698  1.00  0.00    -0.018 C 
HETATM    2  C6  UNL     1      -5.168   3.293  12.133  1.00  0.00    -0.084 C 
HETATM    3  C7  UNL     1      -5.835   2.214  11.320  1.00  0.00     0.043 C 
ENDROOT
BRANCH   2   4
HETATM    4  C8  UNL     1      -3.675   3.112  12.336  1.00  0.00     0.060 C 
BRANCH   4   5
HETATM    5  C9  UNL     1      -2.913   4.386  12.081  1.00  0.00    -0.022 C 
HETATM    6  C10 UNL     1      -1.572   4.447  12.034  1.00  0.00     0.003 C 
BRANCH   6   7
HETATM    7  C11 UNL     1      -0.757   5.637  11.777  1.00  0.00    -0.066 C 
HETATM    8  C12 UNL     1      -1.284   6.956  12.273  1.00  0.00     0.048 C 
HETATM    9  C13 UNL     1       0.416   5.473  11.125  1.00  0.00    -0.013 C 
BRANCH   9  10
HETATM   10  C14 UNL     1       1.466   6.490  10.686  1.00  0.00     0.037 C 
HETATM   11  C15 UNL     1       1.415   7.765  11.536  1.00  0.00     0.017 C 
BRANCH  10  12
HETATM   12  C16 UNL     1       2.877   5.851  10.548  1.00  0.00     0.165 C 
BRANCH  12  13
HETATM   13  O2  UNL     1       2.944   5.229   9.247  1.00  0.00    -0.387 OA
HETATM   14  C17 UNL     1       2.580   6.112   8.195  1.00  0.00     0.202 C 
ENDBRANCH  12  13
BRANCH  12  15
HETATM   15  C18 UNL     1       4.023   6.848  10.641  1.00  0.00     0.110 A 
HETATM   16  C19 UNL     1       3.992   8.039   9.728  1.00  0.00     0.051 C 
HETATM   17  O3  UNL     1       4.463   7.134  11.982  1.00  0.00    -0.367 OA
HETATM   18  C20 UNL     1       5.354   6.342  11.191  1.00  0.00     0.155 A 
HETATM   19  C21 UNL     1       6.662   6.984  10.900  1.00  0.00     0.042 C 
ENDBRANCH  12  15
ENDBRANCH  10  12
ENDBRANCH   9  10
ENDBRANCH   6   7
ENDBRANCH   4   5
ENDBRANCH   2   4
BRANCH   1  20
HETATM   20  C4  UNL     1      -7.285   4.679  12.612  1.00  0.00     0.085 C 
BRANCH  20  21
HETATM   21  C3  UNL     1      -7.713   5.850  13.486  1.00  0.00     0.023 A 
HETATM   22  N1  UNL     1      -9.008   5.853  13.911  1.00  0.00    -0.337 N 
HETATM   23  C2  UNL     1      -9.439   6.879  14.679  1.00  0.00     0.179 A 
ATOM     24  H1  UNL     1      -9.641   5.095  13.654  1.00  0.00     0.168 HD
HETATM   25  C25 UNL     1      -8.612   7.913  15.094  1.00  0.00     0.153 A 
HETATM   26  C24 UNL     1      -7.292   7.890  14.650  1.00  0.00     0.111 A 
HETATM   27  C22 UNL     1      -6.797   6.844  13.866  1.00  0.00    -0.003 A 
HETATM   28  C23 UNL     1      -5.368   6.843  13.406  1.00  0.00     0.053 C 
BRANCH  23  29
HETATM   29  O1  UNL     1     -10.768   6.917  15.049  1.00  0.00    -0.339 OA
HETATM   30  C1  UNL     1     -11.661   6.950  13.942  1.00  0.00     0.211 C 
ENDBRANCH  23  29
BRANCH  25  31
HETATM   31  O5  UNL     1      -8.990   8.990  15.853  1.00  0.00    -0.349 OA
HETATM   32  C26 UNL     1      -9.650   9.991  15.075  1.00  0.00     0.210 C 
ENDBRANCH  25  31
BRANCH  26  33
HETATM   33  O4  UNL     1      -6.458   8.924  15.001  1.00  0.00    -0.357 OA
HETATM   34  H36 UNL     1      -7.034   9.592  15.428  1.00  0.00     0.217 HD
ENDBRANCH  26  33
ENDBRANCH  20  21
ENDBRANCH   1  20
TORSDOF 12
ENDMDL
