MODEL 1
REMARK minimizedAffinity -8.4161396
REMARK CNNscore 0.543325782
REMARK CNNaffinity 7.22081995
REMARK  7 active torsions:
REMARK  status: ('A' for Active; 'I' for Inactive)
REMARK    1  A    between atoms: C2_2  and  O2_4 
REMARK    2  A    between atoms: O2_4  and  C3_5 
REMARK    3  A    between atoms: C3_5  and  C4_6 
REMARK    4  A    between atoms: C3_5  and  C9_12 
REMARK    5  A    between atoms: C5_7  and  C6_8 
REMARK    6  A    between atoms: C6_8  and  O3_11 
REMARK    7  A    between atoms: C9_12  and  C11_14 
ROOT
HETATM    1  C11 UNL     1      -2.245   5.651  12.685  1.00  0.00     0.001 C 
HETATM    2  C12 UNL     1      -3.135   5.008  13.792  1.00  0.00     0.007 C 
HETATM    3  C13 UNL     1      -3.472   6.098  14.826  1.00  0.00     0.015 C 
HETATM    4  C14 UNL     1      -3.107   7.419  14.134  1.00  0.00    -0.013 C 
HETATM    5  C15 UNL     1      -4.314   7.805  13.223  1.00  0.00     0.021 C 
HETATM    6  C16 UNL     1      -2.849   8.656  14.991  1.00  0.00    -0.068 C 
HETATM    7  C17 UNL     1      -2.014   9.631  14.544  1.00  0.00    -0.068 C 
HETATM    8  C18 UNL     1      -1.238   9.469  13.227  1.00  0.00     0.036 C 
HETATM    9  C19 UNL     1      -1.425   8.153  12.443  1.00  0.00     0.015 C 
HETATM   10  C20 UNL     1      -1.796   6.988  13.370  1.00  0.00    -0.029 C 
HETATM   11  C21 UNL     1      -0.598   6.702  14.332  1.00  0.00     0.016 C 
HETATM   12  C22 UNL     1      -1.772  10.945  15.339  1.00  0.00    -0.015 C 
HETATM   13  C23 UNL     1      -0.358  10.841  15.962  1.00  0.00     0.020 C 
HETATM   14  C24 UNL     1      -1.818  12.174  14.381  1.00  0.00     0.021 C 
HETATM   15  C25 UNL     1      -2.160  13.512  15.030  1.00  0.00     0.080 C 
HETATM   16  C26 UNL     1      -1.977  13.518  16.527  1.00  0.00     0.135 C 
HETATM   17  O4  UNL     1      -1.334  14.414  17.073  1.00  0.00    -0.297 OA
HETATM   18  C27 UNL     1      -2.705  12.428  17.321  1.00  0.00     0.018 C 
HETATM   19  C28 UNL     1      -1.943  12.158  18.635  1.00  0.00     0.023 C 
HETATM   20  C29 UNL     1      -4.086  13.006  17.703  1.00  0.00     0.023 C 
HETATM   21  C30 UNL     1      -2.896  11.162  16.418  1.00  0.00     0.013 C 
HETATM   22  C31 UNL     1      -3.148   9.875  17.211  1.00  0.00     0.011 C 
HETATM   23  C32 UNL     1      -3.609   8.750  16.290  1.00  0.00     0.036 C 
ENDROOT
BRANCH   1  24
HETATM   24  C9  UNL     1      -1.161   4.670  12.125  1.00  0.00     0.020 C 
HETATM   25  C10 UNL     1      -0.383   5.296  10.953  1.00  0.00     0.013 C 
BRANCH  24  26
HETATM   26  C3  UNL     1      -1.713   3.291  11.626  1.00  0.00     0.158 C 
BRANCH  26  27
HETATM   27  O2  UNL     1      -0.863   2.774  10.581  1.00  0.00    -0.312 OA
BRANCH  27  28
HETATM   28  C2  UNL     1      -0.954   1.442  10.319  1.00  0.00     0.255 C 
HETATM   29  C1  UNL     1      -1.438   0.713  11.535  1.00  0.00     0.126 C 
HETATM   30  O1  UNL     1      -0.718   0.902   9.248  1.00  0.00    -0.266 OA
ENDBRANCH  27  28
ENDBRANCH  26  27
BRANCH  26  31
HETATM   31  C4  UNL     1      -3.111   3.324  11.059  1.00  0.00     0.005 C 
HETATM   32  C5  UNL     1      -4.150   2.653  11.589  1.00  0.00     0.008 C 
BRANCH  32  33
HETATM   33  C6  UNL     1      -5.576   2.620  11.088  1.00  0.00     0.068 C 
HETATM   34  C7  UNL     1      -6.421   3.634  11.863  1.00  0.00     0.050 C 
HETATM   35  C8  UNL     1      -6.257   1.247  11.118  1.00  0.00     0.050 C 
BRANCH  33  36
HETATM   36  O3  UNL     1      -5.533   3.056   9.728  1.00  0.00    -0.387 OA
HETATM   37  H13 UNL     1      -4.940   2.445   9.256  1.00  0.00     0.211 HD
ENDBRANCH  33  36
ENDBRANCH  32  33
ENDBRANCH  26  31
ENDBRANCH  24  26
ENDBRANCH   1  24
TORSDOF 7
ENDMDL
