MODEL 1
REMARK minimizedAffinity -8.85643482
REMARK  6 active torsions:
REMARK  status: ('A' for Active; 'I' for Inactive)
REMARK    1  A    between atoms: C6_8  and  C7_9 
REMARK    2  A    between atoms: C10_12  and  O1_13 
REMARK    3  A    between atoms: O1_13  and  C11_14 
REMARK    4  A    between atoms: C18_22  and  C19_23 
REMARK    5  A    between atoms: C22_26  and  O2_27 
REMARK    6  A    between atoms: O2_27  and  C23_28 
ROOT
HETATM    1  C1  UNL     1      -7.446   1.805  12.326  1.00  0.00     0.049 C 
HETATM    2  C2  UNL     1      -6.065   2.378  12.165  1.00  0.00    -0.046 A 
HETATM    3  C3  UNL     1      -5.043   1.618  11.714  1.00  0.00     0.056 A 
HETATM    4  C4  UNL     1      -3.740   2.168  11.569  1.00  0.00     0.112 A 
HETATM    5  N1  UNL     1      -2.614   1.615  11.178  1.00  0.00    -0.350 N 
ATOM      6  H1  UNL     1      -2.465   0.647  10.891  1.00  0.00     0.166 HD
HETATM    7  C5  UNL     1      -1.684   2.618  11.240  1.00  0.00     0.120 A 
HETATM    8  C6  UNL     1      -2.240   3.812  11.662  1.00  0.00     0.066 A 
HETATM    9  N2  UNL     1      -3.573   3.510  11.894  1.00  0.00    -0.305 N 
HETATM   10  C17 UNL     1      -4.611   4.309  12.372  1.00  0.00     0.112 A 
HETATM   11  C18 UNL     1      -5.850   3.794  12.518  1.00  0.00    -0.004 A 
ENDROOT
BRANCH   8  12
HETATM   12  C7  UNL     1      -1.613   5.112  11.860  1.00  0.00    -0.007 A 
HETATM   13  C8  UNL     1      -2.097   6.001  12.829  1.00  0.00     0.016 A 
HETATM   14  C9  UNL     1      -1.496   7.250  13.005  1.00  0.00     0.037 A 
HETATM   15  C10 UNL     1      -0.432   7.628  12.191  1.00  0.00     0.069 A 
HETATM   16  C15 UNL     1       0.080   6.739  11.249  1.00  0.00     0.037 A 
HETATM   17  C16 UNL     1      -0.520   5.490  11.072  1.00  0.00     0.016 A 
BRANCH  15  18
HETATM   18  O1  UNL     1       0.197   8.822  12.397  1.00  0.00    -0.341 OA
BRANCH  18  19
HETATM   19  C11 UNL     1       1.251   8.840  13.388  1.00  0.00     0.057 C 
HETATM   20  C12 UNL     1       1.531   7.445  13.963  1.00  0.00     0.045 C 
HETATM   21  C13 UNL     1       2.497   9.296  12.609  1.00  0.00     0.045 C 
HETATM   22  C14 UNL     1       0.998   9.850  14.517  1.00  0.00     0.045 C 
ENDBRANCH  18  19
ENDBRANCH  15  18
ENDBRANCH   8  12
BRANCH  11  23
HETATM   23  C19 UNL     1      -6.894   4.698  13.027  1.00  0.00    -0.024 A 
HETATM   24  C20 UNL     1      -7.942   5.106  12.197  1.00  0.00     0.015 A 
HETATM   25  C21 UNL     1      -8.934   5.957  12.689  1.00  0.00     0.037 A 
HETATM   26  C22 UNL     1      -8.895   6.416  14.009  1.00  0.00     0.069 A 
HETATM   27  C26 UNL     1      -7.853   6.005  14.840  1.00  0.00     0.037 A 
HETATM   28  C27 UNL     1      -6.857   5.150  14.351  1.00  0.00     0.015 A 
BRANCH  26  29
HETATM   29  O2  UNL     1      -9.932   7.236  14.351  1.00  0.00    -0.347 OA
BRANCH  29  30
HETATM   30  C23 UNL     1     -11.103   7.267  13.528  1.00  0.00     0.120 C 
HETATM   31  C24 UNL     1     -12.224   6.617  14.337  1.00  0.00     0.040 C 
HETATM   32  C25 UNL     1     -11.469   8.711  13.200  1.00  0.00     0.040 C 
ENDBRANCH  29  30
ENDBRANCH  26  29
ENDBRANCH  11  23
TORSDOF 6
ENDMDL
