MODEL 1
REMARK minimizedAffinity -8.57715797
REMARK CNNscore 0.472146243
REMARK CNNaffinity 6.78401756
REMARK  1 active torsions:
REMARK  status: ('A' for Active; 'I' for Inactive)
REMARK    1  A    between atoms: C22_26  and  O5_27 
ROOT
HETATM    1  C1  UNL     1       2.494  58.148  -5.585  1.00  0.00     0.014 C 
HETATM    2  C2  UNL     1       2.574  57.625  -6.821  1.00  0.00    -0.085 C 
HETATM    3  C3  UNL     1       3.799  57.887  -7.674  1.00  0.00     0.035 C 
HETATM    4  C4  UNL     1       4.463  56.573  -8.086  1.00  0.00     0.025 C 
HETATM    5  C5  UNL     1       3.464  55.616  -8.742  1.00  0.00     0.055 C 
HETATM    6  C6  UNL     1       3.103  56.028 -10.187  1.00  0.00     0.021 C 
HETATM    7  C7  UNL     1       2.239  54.984 -10.927  1.00  0.00     0.014 C 
HETATM    8  C8  UNL     1       1.087  54.396 -10.048  1.00  0.00    -0.001 C 
HETATM    9  C9  UNL     1      -0.039  55.477 -10.090  1.00  0.00     0.019 C 
HETATM   10  C10 UNL     1       1.621  54.179  -8.563  1.00  0.00     0.112 C 
HETATM   11  O1  UNL     1       2.855  53.378  -8.671  1.00  0.00    -0.305 OA
HETATM   12  C11 UNL     1       3.951  54.193  -8.787  1.00  0.00     0.269 C 
HETATM   13  O2  UNL     1       5.093  53.804  -8.946  1.00  0.00    -0.264 OA
HETATM   14  C12 UNL     1       2.230  55.397  -7.844  1.00  0.00     0.050 C 
HETATM   15  C13 UNL     1       1.520  56.719  -7.483  1.00  0.00     0.018 C 
HETATM   16  C14 UNL     1       0.266  56.512  -6.632  1.00  0.00     0.015 C 
HETATM   17  C15 UNL     1       0.717  53.342  -7.699  1.00  0.00     0.187 A 
HETATM   18  O3  UNL     1      -0.667  53.664  -7.614  1.00  0.00    -0.372 OA
HETATM   19  C16 UNL     1      -0.348  52.457  -8.326  1.00  0.00     0.160 A 
HETATM   20  C17 UNL     1      -0.712  52.541  -9.797  1.00  0.00     0.035 C 
HETATM   21  C18 UNL     1      -1.565  51.329 -10.329  1.00  0.00    -0.023 C 
HETATM   22  C19 UNL     1      -0.841  49.962 -10.194  1.00  0.00     0.016 C 
HETATM   23  C20 UNL     1      -2.886  51.247  -9.510  1.00  0.00     0.096 C 
HETATM   24  C21 UNL     1      -3.897  50.299 -10.116  1.00  0.00     0.183 C 
HETATM   25  O4  UNL     1      -4.795  49.776  -9.454  1.00  0.00    -0.290 OA
HETATM   26  C22 UNL     1      -3.840  50.004 -11.580  1.00  0.00     0.114 C 
HETATM   27  C23 UNL     1      -2.945  50.614 -12.378  1.00  0.00    -0.042 C 
HETATM   28  C24 UNL     1      -2.934  50.364 -13.864  1.00  0.00     0.047 C 
HETATM   29  C25 UNL     1      -1.966  51.641 -11.813  1.00  0.00     0.026 C 
HETATM   30  C26 UNL     1      -0.725  51.926 -12.685  1.00  0.00     0.011 C 
HETATM   31  C27 UNL     1       0.106  53.099 -12.145  1.00  0.00     0.011 C 
HETATM   32  C28 UNL     1       0.536  52.968 -10.653  1.00  0.00    -0.027 C 
HETATM   33  C29 UNL     1       1.636  51.865 -10.614  1.00  0.00     0.016 C 
ENDROOT
BRANCH  26  34
HETATM   34  O5  UNL     1      -4.768  49.101 -12.062  1.00  0.00    -0.357 OA
HETATM   35  H27 UNL     1      -5.307  48.852 -11.280  1.00  0.00     0.218 HD
ENDBRANCH  26  34
TORSDOF 1
ENDMDL
