MODEL 1
REMARK minimizedAffinity -8.68911934
REMARK  8 active torsions:
REMARK  status: ('A' for Active; 'I' for Inactive)
REMARK    1  A    between atoms: O1_2  and  C2_3 
REMARK    2  A    between atoms: C5_6  and  N1_7 
REMARK    3  A    between atoms: N1_7  and  C6_8 
REMARK    4  A    between atoms: C16_25  and  O4_26 
REMARK    5  A    between atoms: O4_26  and  C17_27 
REMARK    6  A    between atoms: C17_27  and  C18_28 
REMARK    7  A    between atoms: C18_28  and  C19_29 
REMARK    8  A    between atoms: C19_29  and  N4_30 
ROOT
HETATM    1  C2  UNL     1       6.144  -6.853  29.341  1.00  0.00     0.102 A 
HETATM    2  C3  UNL     1       7.070  -6.164  30.125  1.00  0.00     0.057 A 
HETATM    3  C4  UNL     1       6.785  -4.865  30.622  1.00  0.00     0.038 A 
HETATM    4  C5  UNL     1       7.644  -4.090  31.427  1.00  0.00     0.119 A 
HETATM    5  N2  UNL     1       7.325  -2.853  31.845  1.00  0.00    -0.338 N 
ATOM      6  H2  UNL     1       7.967  -2.293  32.405  1.00  0.00     0.168 HD
HETATM    7  C13 UNL     1       6.124  -2.398  31.489  1.00  0.00     0.182 A 
HETATM    8  N3  UNL     1       5.223  -3.045  30.740  1.00  0.00    -0.351 N 
ATOM      9  H3  UNL     1       4.322  -2.626  30.507  1.00  0.00     0.166 HD
HETATM   10  C14 UNL     1       5.559  -4.265  30.314  1.00  0.00     0.050 A 
HETATM   11  C15 UNL     1       4.649  -4.961  29.528  1.00  0.00     0.070 A 
HETATM   12  C16 UNL     1       4.920  -6.240  29.033  1.00  0.00     0.104 A 
ENDROOT
BRANCH   4  13
HETATM   13  N1  UNL     1       8.918  -4.564  31.811  1.00  0.00    -0.338 N 
HETATM   14  H5  UNL     1       8.912  -5.579  31.857  1.00  0.00     0.167 HD
BRANCH  13  15
HETATM   15  C6  UNL     1       9.717  -4.027  32.853  1.00  0.00     0.092 A 
HETATM   16  C7  UNL     1       9.611  -4.534  34.168  1.00  0.00     0.063 A 
HETATM   17 CL1  UNL     1       8.411  -5.722  34.552  1.00  0.00    -0.082 Cl
HETATM   18  C8  UNL     1      10.440  -4.076  35.211  1.00  0.00     0.029 A 
HETATM   19  C9  UNL     1      11.411  -3.108  34.964  1.00  0.00     0.041 A 
HETATM   20  C10 UNL     1      11.524  -2.633  33.675  1.00  0.00     0.107 A 
HETATM   21  C11 UNL     1      10.714  -3.077  32.650  1.00  0.00     0.133 A 
HETATM   22  O3  UNL     1      12.425  -1.697  33.268  1.00  0.00    -0.323 OA
HETATM   23  O2  UNL     1      11.021  -2.459  31.472  1.00  0.00    -0.321 OA
HETATM   24  C12 UNL     1      12.117  -1.614  31.863  1.00  0.00     0.352 A 
ENDBRANCH  13  15
ENDBRANCH   4  13
BRANCH   1  25
HETATM   25  O1  UNL     1       6.346  -8.106  28.822  1.00  0.00    -0.353 OA
HETATM   26  C1  UNL     1       7.591  -8.740  29.084  1.00  0.00     0.210 C 
ENDBRANCH   1  25
BRANCH  12  27
HETATM   27  O4  UNL     1       4.057  -6.974  28.260  1.00  0.00    -0.348 OA
BRANCH  27  28
HETATM   28  C17 UNL     1       2.672  -6.640  28.303  1.00  0.00     0.177 C 
BRANCH  28  29
HETATM   29  C18 UNL     1       1.842  -7.895  28.033  1.00  0.00     0.057 C 
BRANCH  29  30
HETATM   30  C19 UNL     1       2.670  -8.988  27.341  1.00  0.00     0.274 C 
BRANCH  30  31
HETATM   31  N4  UNL     1       2.600  -8.899  25.873  1.00  0.00     0.088 N 
HETATM   32  C20 UNL     1       1.276  -8.401  25.454  1.00  0.00     0.272 C 
HETATM   33  C21 UNL     1       0.898  -8.759  24.009  1.00  0.00     0.030 C 
HETATM   34  C22 UNL     1       2.129  -8.885  23.126  1.00  0.00     0.003 C 
HETATM   35  C23 UNL     1       3.106  -9.916  23.695  1.00  0.00     0.030 C 
HETATM   36  C24 UNL     1       2.927 -10.155  25.200  1.00  0.00     0.272 C 
ENDBRANCH  30  31
ENDBRANCH  29  30
ENDBRANCH  28  29
ENDBRANCH  27  28
ENDBRANCH  12  27
TORSDOF 8
ENDMDL
