MODEL 1
REMARK minimizedAffinity -7.90049314
REMARK CNNscore 0.589665353
REMARK CNNaffinity 7.31130219
REMARK  6 active torsions:
REMARK  status: ('A' for Active; 'I' for Inactive)
REMARK    1  A    between atoms: C2_2  and  C30_31 
REMARK    2  A    between atoms: C3_3  and  C4_4 
REMARK    3  A    between atoms: C4_4  and  C5_5 
REMARK    4  A    between atoms: C5_5  and  C6_6 
REMARK    5  A    between atoms: C6_6  and  C8_8 
REMARK    6  A    between atoms: C30_31  and  O3_33 
ROOT
HETATM    1  C8  UNL     1      -8.900   6.537  15.149  1.00  0.00    -0.002 C 
HETATM    2  C9  UNL     1      -8.243   7.094  16.439  1.00  0.00     0.007 C 
HETATM    3  C10 UNL     1      -6.732   6.781  16.337  1.00  0.00     0.015 C 
HETATM    4  C11 UNL     1      -6.601   5.801  15.149  1.00  0.00    -0.013 C 
HETATM    5  C12 UNL     1      -6.895   4.379  15.732  1.00  0.00     0.021 C 
HETATM    6  C13 UNL     1      -5.260   5.682  14.436  1.00  0.00    -0.070 C 
HETATM    7  C14 UNL     1      -4.087   5.830  15.079  1.00  0.00    -0.022 C 
HETATM    8  C15 UNL     1      -2.739   5.586  14.460  1.00  0.00     0.034 C 
HETATM    9  C16 UNL     1      -2.777   5.366  12.932  1.00  0.00     0.013 C 
HETATM   10  C17 UNL     1      -1.402   4.973  12.267  1.00  0.00     0.018 C 
HETATM   11  C18 UNL     1      -0.925   6.129  11.356  1.00  0.00     0.023 C 
HETATM   12  C19 UNL     1      -0.277   4.708  13.290  1.00  0.00     0.023 C 
HETATM   13  C20 UNL     1      -1.518   3.741  11.356  1.00  0.00     0.135 C 
HETATM   14  O1  UNL     1      -0.604   2.916  11.261  1.00  0.00    -0.297 OA
HETATM   15  C21 UNL     1      -2.737   3.589  10.478  1.00  0.00     0.080 C 
HETATM   16  C22 UNL     1      -3.968   4.323  10.986  1.00  0.00     0.017 C 
HETATM   17  C23 UNL     1      -4.010   4.482  12.523  1.00  0.00    -0.031 C 
HETATM   18  C24 UNL     1      -3.989   3.086  13.198  1.00  0.00     0.016 C 
HETATM   19  C25 UNL     1      -5.301   5.286  12.952  1.00  0.00     0.024 C 
HETATM   20  C26 UNL     1      -6.647   4.648  12.522  1.00  0.00     0.010 C 
HETATM   21  C27 UNL     1      -7.929   5.356  13.028  1.00  0.00     0.011 C 
HETATM   22  C28 UNL     1      -7.692   6.361  14.173  1.00  0.00    -0.029 C 
HETATM   23  C29 UNL     1      -7.326   7.737  13.545  1.00  0.00     0.016 C 
ENDROOT
BRANCH   1  24
HETATM   24  C6  UNL     1     -10.183   7.267  14.646  1.00  0.00    -0.014 C 
HETATM   25  C7  UNL     1     -10.045   8.764  14.989  1.00  0.00     0.010 C 
BRANCH  24  26
HETATM   26  C5  UNL     1     -10.491   7.112  13.135  1.00  0.00     0.008 C 
BRANCH  26  27
HETATM   27  C4  UNL     1     -11.961   7.355  12.752  1.00  0.00     0.028 C 
BRANCH  27  28
HETATM   28  C3  UNL     1     -12.971   6.669  13.630  1.00  0.00    -0.013 C 
HETATM   29  C2  UNL     1     -14.316   6.669  13.516  1.00  0.00     0.008 C 
HETATM   30  C1  UNL     1     -15.175   5.891  14.472  1.00  0.00     0.055 C 
BRANCH  29  31
HETATM   31  C30 UNL     1     -15.017   7.461  12.473  1.00  0.00     0.171 C 
HETATM   32  O2  UNL     1     -15.486   7.058  11.424  1.00  0.00    -0.646 OA
BRANCH  31  33
HETATM   33  O3  UNL     1     -15.088   8.765  12.796  1.00  0.00    -0.773 OA
HETATM   34  H46 UNL     1     -15.563   9.158  12.034  1.00  0.00     0.167 HD
ENDBRANCH  31  33
ENDBRANCH  29  31
ENDBRANCH  27  28
ENDBRANCH  26  27
ENDBRANCH  24  26
ENDBRANCH   1  24
TORSDOF 6
ENDMDL
