MODEL 1
REMARK minimizedAffinity -8.68084717
REMARK CNNscore 0.54832691
REMARK CNNaffinity 6.49344444
REMARK  6 active torsions:
REMARK  status: ('A' for Active; 'I' for Inactive)
REMARK    1  A    between atoms: C2_2  and  C30_31 
REMARK    2  A    between atoms: C3_3  and  C4_4 
REMARK    3  A    between atoms: C4_4  and  C5_5 
REMARK    4  A    between atoms: C5_5  and  C6_6 
REMARK    5  A    between atoms: C6_6  and  C8_8 
REMARK    6  A    between atoms: C30_31  and  O3_33 
ROOT
HETATM    1  C8  UNL     1       1.106  10.313  17.578  1.00  0.00    -0.002 C 
HETATM    2  C9  UNL     1       2.614  10.670  17.586  1.00  0.00     0.007 C 
HETATM    3  C10 UNL     1       3.197  10.154  16.253  1.00  0.00     0.015 C 
HETATM    4  C11 UNL     1       2.101   9.234  15.661  1.00  0.00    -0.013 C 
HETATM    5  C12 UNL     1       2.306   7.840  16.326  1.00  0.00     0.021 C 
HETATM    6  C13 UNL     1       2.075   8.997  14.163  1.00  0.00    -0.070 C 
HETATM    7  C14 UNL     1       3.103   9.252  13.343  1.00  0.00    -0.022 C 
HETATM    8  C15 UNL     1       2.976   9.035  11.871  1.00  0.00     0.034 C 
HETATM    9  C16 UNL     1       2.293   7.682  11.552  1.00  0.00     0.013 C 
HETATM   10  C17 UNL     1       2.168   7.430  10.002  1.00  0.00     0.018 C 
HETATM   11  C18 UNL     1       2.004   5.932   9.675  1.00  0.00     0.023 C 
HETATM   12  C19 UNL     1       3.429   7.899   9.239  1.00  0.00     0.023 C 
HETATM   13  C20 UNL     1       0.959   8.178   9.429  1.00  0.00     0.135 C 
HETATM   14  O1  UNL     1       0.900   8.511   8.243  1.00  0.00    -0.297 OA
HETATM   15  C21 UNL     1      -0.179   8.518  10.361  1.00  0.00     0.080 C 
HETATM   16  C22 UNL     1      -0.298   7.484  11.467  1.00  0.00     0.017 C 
HETATM   17  C23 UNL     1       0.950   7.460  12.394  1.00  0.00    -0.031 C 
HETATM   18  C24 UNL     1       1.033   6.051  13.040  1.00  0.00     0.016 C 
HETATM   19  C25 UNL     1       0.754   8.563  13.535  1.00  0.00     0.024 C 
HETATM   20  C26 UNL     1      -0.364   8.244  14.575  1.00  0.00     0.010 C 
HETATM   21  C27 UNL     1      -0.435   9.127  15.843  1.00  0.00     0.011 C 
HETATM   22  C28 UNL     1       0.804  10.008  16.078  1.00  0.00    -0.029 C 
HETATM   23  C29 UNL     1       0.591  11.333  15.289  1.00  0.00     0.016 C 
ENDROOT
BRANCH   1  24
HETATM   24  C6  UNL     1       0.155  11.273  18.357  1.00  0.00    -0.014 C 
HETATM   25  C7  UNL     1      -1.225  10.596  18.466  1.00  0.00     0.010 C 
BRANCH  24  26
HETATM   26  C5  UNL     1       0.652  11.687  19.765  1.00  0.00     0.008 C 
BRANCH  26  27
HETATM   27  C4  UNL     1       1.089  10.526  20.674  1.00  0.00     0.028 C 
BRANCH  27  28
HETATM   28  C3  UNL     1       2.434  10.693  21.323  1.00  0.00    -0.013 C 
HETATM   29  C2  UNL     1       3.014   9.916  22.262  1.00  0.00     0.008 C 
HETATM   30  C1  UNL     1       4.373  10.256  22.811  1.00  0.00     0.055 C 
BRANCH  29  31
HETATM   31  C30 UNL     1       2.343   8.711  22.819  1.00  0.00     0.171 C 
HETATM   32  O2  UNL     1       1.825   7.796  22.205  1.00  0.00    -0.646 OA
BRANCH  31  33
HETATM   33  O3  UNL     1       2.349   8.707  24.165  1.00  0.00    -0.773 OA
HETATM   34  H46 UNL     1       1.877   7.879  24.388  1.00  0.00     0.167 HD
ENDBRANCH  31  33
ENDBRANCH  29  31
ENDBRANCH  27  28
ENDBRANCH  26  27
ENDBRANCH  24  26
ENDBRANCH   1  24
TORSDOF 6
ENDMDL
