MODEL 1
REMARK minimizedAffinity -8.57536602
REMARK CNNscore 0.434364289
REMARK CNNaffinity 6.56688452
REMARK  6 active torsions:
REMARK  status: ('A' for Active; 'I' for Inactive)
REMARK    1  A    between atoms: C2_2  and  C30_32 
REMARK    2  A    between atoms: C3_3  and  C4_4 
REMARK    3  A    between atoms: C4_4  and  C5_6 
REMARK    4  A    between atoms: C5_6  and  C6_7 
REMARK    5  A    between atoms: C6_7  and  C8_9 
REMARK    6  A    between atoms: C30_32  and  O4_34 
ROOT
HETATM    1  C8  UNL     1      -0.164  50.616 -18.038  1.00  0.00    -0.001 C 
HETATM    2  C9  UNL     1      -0.162  52.075 -18.582  1.00  0.00     0.007 C 
HETATM    3  C10 UNL     1      -1.114  52.115 -19.792  1.00  0.00     0.015 C 
HETATM    4  C11 UNL     1      -1.405  50.635 -20.117  1.00  0.00    -0.013 C 
HETATM    5  C12 UNL     1      -0.217  50.146 -21.006  1.00  0.00     0.021 C 
HETATM    6  C13 UNL     1      -2.678  50.306 -20.888  1.00  0.00    -0.070 C 
HETATM    7  C14 UNL     1      -3.247  51.163 -21.750  1.00  0.00    -0.022 C 
HETATM    8  C15 UNL     1      -4.469  50.875 -22.563  1.00  0.00     0.034 C 
HETATM    9  C16 UNL     1      -5.034  49.431 -22.527  1.00  0.00     0.013 C 
HETATM   10  C17 UNL     1      -6.510  49.332 -21.999  1.00  0.00     0.018 C 
HETATM   11  C18 UNL     1      -7.449  50.201 -22.872  1.00  0.00     0.023 C 
HETATM   12  C19 UNL     1      -6.675  49.750 -20.532  1.00  0.00     0.023 C 
HETATM   13  C20 UNL     1      -7.011  47.883 -22.137  1.00  0.00     0.135 C 
HETATM   14  O2  UNL     1      -8.205  47.592 -22.039  1.00  0.00    -0.297 OA
HETATM   15  C21 UNL     1      -5.991  46.808 -22.421  1.00  0.00     0.080 C 
HETATM   16  C22 UNL     1      -4.764  47.053 -21.561  1.00  0.00     0.017 C 
HETATM   17  C23 UNL     1      -4.024  48.372 -21.927  1.00  0.00    -0.031 C 
HETATM   18  C24 UNL     1      -2.987  48.040 -23.040  1.00  0.00     0.016 C 
HETATM   19  C25 UNL     1      -3.296  48.935 -20.649  1.00  0.00     0.024 C 
HETATM   20  C26 UNL     1      -2.316  47.934 -19.980  1.00  0.00     0.010 C 
HETATM   21  C27 UNL     1      -1.508  48.479 -18.779  1.00  0.00     0.011 C 
HETATM   22  C28 UNL     1      -1.461  50.017 -18.675  1.00  0.00    -0.029 C 
HETATM   23  C29 UNL     1      -2.691  50.497 -17.839  1.00  0.00     0.016 C 
ENDROOT
BRANCH   1  24
HETATM   24  C6  UNL     1       0.035  50.556 -16.497  1.00  0.00    -0.007 C 
HETATM   25  C7  UNL     1       0.542  49.194 -16.013  1.00  0.00     0.011 C 
BRANCH  24  26
HETATM   26  C5  UNL     1       0.945  51.690 -15.968  1.00  0.00     0.087 C 
BRANCH  26  27
HETATM   27  C4  UNL     1       0.931  51.874 -14.459  1.00  0.00     0.150 C 
HETATM   28  O1  UNL     1       0.163  52.648 -13.895  1.00  0.00    -0.293 OA
BRANCH  27  29
HETATM   29  C3  UNL     1       1.942  51.097 -13.688  1.00  0.00     0.063 C 
HETATM   30  C2  UNL     1       3.251  51.032 -13.997  1.00  0.00     0.015 C 
HETATM   31  C1  UNL     1       3.948  51.756 -15.110  1.00  0.00     0.055 C 
BRANCH  30  32
HETATM   32  C30 UNL     1       4.059  50.172 -13.105  1.00  0.00     0.171 C 
HETATM   33  O3  UNL     1       5.098  49.606 -13.397  1.00  0.00    -0.646 OA
BRANCH  32  34
HETATM   34  O4  UNL     1       3.534  50.066 -11.875  1.00  0.00    -0.773 OA
HETATM   35  H44 UNL     1       4.165  49.491 -11.394  1.00  0.00     0.167 HD
ENDBRANCH  32  34
ENDBRANCH  30  32
ENDBRANCH  27  29
ENDBRANCH  26  27
ENDBRANCH  24  26
ENDBRANCH   1  24
TORSDOF 6
ENDMDL
