MODEL 1
REMARK minimizedAffinity -6.30061054
REMARK CNNscore 0.871338367
REMARK CNNaffinity 7.45767403
REMARK  7 active torsions:
REMARK  status: ('A' for Active; 'I' for Inactive)
REMARK    1  A    between atoms: C2_2  and  C3_3 
REMARK    2  A    between atoms: C4_5  and  C5_6 
REMARK    3  A    between atoms: C5_6  and  C6_7 
REMARK    4  A    between atoms: C6_7  and  C7_8 
REMARK    5  A    between atoms: C7_8  and  C9_10 
REMARK    6  A    between atoms: C11_12  and  O2_13 
REMARK    7  A    between atoms: C30_33  and  O4_34 
ROOT
HETATM    1  C9  UNL     1      -1.888  15.294   4.468  1.00  0.00     0.001 C 
HETATM    2  C10 UNL     1      -2.695  15.349   3.135  1.00  0.00     0.038 C 
HETATM    3  C11 UNL     1      -1.672  15.335   1.984  1.00  0.00     0.132 C 
HETATM    4  C12 UNL     1      -0.374  14.799   2.630  1.00  0.00     0.016 C 
HETATM    5  C13 UNL     1      -0.477  13.240   2.756  1.00  0.00     0.023 C 
HETATM    6  C14 UNL     1       0.960  15.066   1.932  1.00  0.00    -0.037 C 
HETATM    7  C15 UNL     1       2.102  15.079   2.669  1.00  0.00    -0.065 C 
HETATM    8  C16 UNL     1       2.063  14.977   4.203  1.00  0.00     0.036 C 
HETATM    9  C17 UNL     1       0.682  14.971   4.897  1.00  0.00     0.015 C 
HETATM   10  C18 UNL     1      -0.418  15.563   4.006  1.00  0.00    -0.026 C 
HETATM   11  C19 UNL     1      -0.179  17.099   3.867  1.00  0.00     0.016 C 
HETATM   12  C20 UNL     1       3.504  15.214   2.014  1.00  0.00    -0.015 C 
HETATM   13  C21 UNL     1       4.019  16.637   2.338  1.00  0.00     0.020 C 
HETATM   14  C22 UNL     1       4.486  14.169   2.625  1.00  0.00     0.021 C 
HETATM   15  C23 UNL     1       5.625  13.718   1.714  1.00  0.00     0.080 C 
HETATM   16  C24 UNL     1       5.936  14.729   0.640  1.00  0.00     0.135 C 
HETATM   17  O3  UNL     1       7.076  15.175   0.510  1.00  0.00    -0.297 OA
HETATM   18  C25 UNL     1       4.785  15.103  -0.301  1.00  0.00     0.018 C 
HETATM   19  C26 UNL     1       4.840  14.113  -1.482  1.00  0.00     0.023 C 
HETATM   20  C27 UNL     1       5.018  16.513  -0.878  1.00  0.00     0.023 C 
HETATM   21  C28 UNL     1       3.427  14.938   0.467  1.00  0.00     0.016 C 
HETATM   22  C29 UNL     1       2.265  15.712  -0.170  1.00  0.00     0.043 C 
HETATM   23  C30 UNL     1       0.928  15.289   0.437  1.00  0.00     0.148 C 
ENDROOT
BRANCH   1  24
HETATM   24  C7  UNL     1      -2.522  16.180   5.576  1.00  0.00    -0.013 C 
HETATM   25  C8  UNL     1      -3.061  17.513   5.044  1.00  0.00     0.010 C 
BRANCH  24  26
HETATM   26  C6  UNL     1      -1.553  16.447   6.761  1.00  0.00     0.008 C 
BRANCH  26  27
HETATM   27  C5  UNL     1      -2.183  17.143   7.971  1.00  0.00     0.028 C 
BRANCH  27  28
HETATM   28  C4  UNL     1      -3.617  17.519   7.702  1.00  0.00    -0.017 C 
HETATM   29  C2  UNL     1      -4.451  18.213   8.497  1.00  0.00    -0.028 C 
HETATM   30  C1  UNL     1      -5.880  18.483   8.126  1.00  0.00     0.051 C 
BRANCH  29  31
HETATM   31  C3  UNL     1      -4.029  18.809   9.800  1.00  0.00     0.265 C 
HETATM   32  O1  UNL     1      -4.046  18.214  10.870  1.00  0.00    -0.302 OA
ENDBRANCH  29  31
ENDBRANCH  27  28
ENDBRANCH  26  27
ENDBRANCH  24  26
ENDBRANCH   1  24
BRANCH   3  33
HETATM   33  O2  UNL     1      -2.116  14.545   0.887  1.00  0.00    -0.394 OA
HETATM   34  H18 UNL     1      -3.017  14.840   0.665  1.00  0.00     0.210 HD
ENDBRANCH   3  33
BRANCH  23  35
HETATM   35  O4  UNL     1       0.508  14.088  -0.200  1.00  0.00    -0.391 OA
HETATM   36  H46 UNL     1      -0.457  14.023  -0.035  1.00  0.00     0.210 HD
ENDBRANCH  23  35
TORSDOF 7
ENDMDL
