MODEL 1
REMARK minimizedAffinity -10.5229015
REMARK  4 active torsions:
REMARK  status: ('A' for Active; 'I' for Inactive)
REMARK    1  A    between atoms: C3_4  and  C4_5 
REMARK       I    between atoms: N3_16  and  C13_17 
REMARK    2  A    between atoms: C13_17  and  C14_19 
REMARK    3  A    between atoms: C14_19  and  C15_20 
REMARK    4  A    between atoms: C15_20  and  C16_21 
ROOT
HETATM    1  C4  UNL     1      -0.944   5.300  11.658  1.00  0.00    -0.020 A 
HETATM    2  C5  UNL     1      -1.340   4.145  10.953  1.00  0.00     0.014 A 
HETATM    3  C6  UNL     1      -2.514   3.455  11.286  1.00  0.00     0.027 A 
HETATM    4  C7  UNL     1      -3.288   3.923  12.336  1.00  0.00     0.048 A 
HETATM    5  N2  UNL     1      -4.456   3.277  12.782  1.00  0.00    -0.227 NA
HETATM    6  C8  UNL     1      -5.597   3.328  11.997  1.00  0.00     0.202 C 
HETATM    7  O1  UNL     1      -5.646   3.580  10.798  1.00  0.00    -0.280 OA
HETATM    8  C9  UNL     1      -6.838   3.085  12.816  1.00  0.00     0.102 C 
HETATM    9  C10 UNL     1      -7.599   4.299  13.373  1.00  0.00     0.001 C 
HETATM   10  C11 UNL     1      -8.341   5.141  12.336  1.00  0.00     0.025 C 
HETATM   11  C12 UNL     1      -9.454   5.945  13.026  1.00  0.00     0.126 C 
HETATM   12  N3  UNL     1      -9.045   6.603  14.280  1.00  0.00    -0.352 N 
HETATM   13  C13 UNL     1      -9.747   7.684  14.826  1.00  0.00     0.220 C 
HETATM   14  O2  UNL     1      -9.597   8.036  15.996  1.00  0.00    -0.273 OA
HETATM   15  C22 UNL     1      -8.173   5.842  15.195  1.00  0.00     0.130 C 
HETATM   16  C23 UNL     1      -6.954   5.234  14.439  1.00  0.00     0.010 C 
HETATM   17  C24 UNL     1      -6.101   6.480  14.031  1.00  0.00     0.033 C 
HETATM   18  C25 UNL     1      -4.838   6.335  13.200  1.00  0.00     0.176 C 
HETATM   19  O3  UNL     1      -3.825   5.612  13.923  1.00  0.00    -0.349 OA
HETATM   20  C26 UNL     1      -2.934   5.098  13.005  1.00  0.00     0.091 A 
HETATM   21  C27 UNL     1      -1.761   5.776  12.695  1.00  0.00     0.051 A 
HETATM   22  H7  UNL     1      -4.658   3.519  13.749  1.00  0.00     0.136 HD
ENDROOT
BRANCH  13  23
HETATM   23  C14 UNL     1     -10.693   8.425  13.894  1.00  0.00     0.107 C 
BRANCH  23  24
HETATM   24  C15 UNL     1     -11.400   7.472  12.927  1.00  0.00     0.047 C 
BRANCH  24  25
HETATM   25  C16 UNL     1     -12.812   7.178  13.379  1.00  0.00    -0.058 A 
HETATM   26  C17 UNL     1     -13.888   7.922  12.875  1.00  0.00     0.007 A 
HETATM   27  C18 UNL     1     -15.195   7.636  13.276  1.00  0.00     0.001 A 
HETATM   28  C19 UNL     1     -15.437   6.605  14.183  1.00  0.00     0.000 A 
HETATM   29  C20 UNL     1     -14.374   5.859  14.689  1.00  0.00     0.001 A 
HETATM   30  C21 UNL     1     -13.066   6.141  14.288  1.00  0.00     0.007 A 
ENDBRANCH  24  25
ENDBRANCH  23  24
ENDBRANCH  13  23
BRANCH   1  31
HETATM   31  C3  UNL     1       0.291   5.982  11.300  1.00  0.00     0.008 A 
HETATM   32  C2  UNL     1       1.543   5.403  11.242  1.00  0.00     0.123 A 
HETATM   33  N1  UNL     1       2.410   6.387  10.861  1.00  0.00    -0.307 N 
HETATM   34  C1  UNL     1       3.833   6.261  10.660  1.00  0.00     0.177 C 
HETATM   35  N4  UNL     1       1.816   7.575  10.659  1.00  0.00    -0.310 N 
HETATM   36  C28 UNL     1       0.532   7.329  10.932  1.00  0.00     0.120 A 
ATOM     37  H4  UNL     1       2.243   8.454  10.368  1.00  0.00     0.186 HD
ENDBRANCH   1  31
TORSDOF 4
ENDMDL
