MODEL 1
REMARK minimizedAffinity -10.0572138
REMARK CNNscore 0.673985779
REMARK CNNaffinity 7.54348803
REMARK  12 active torsions:
REMARK  status: ('A' for Active; 'I' for Inactive)
REMARK    1  A    between atoms: O1_2  and  C2_3 
REMARK    2  A    between atoms: C2_3  and  C3_4 
REMARK    3  A    between atoms: C3_4  and  C4_5 
REMARK    4  A    between atoms: C4_5  and  O2_6 
REMARK    5  A    between atoms: O2_6  and  C5_7 
REMARK    6  A    between atoms: C20_23  and  C21_24 
REMARK    7  A    between atoms: C21_24  and  O4_26 
REMARK    8  A    between atoms: C21_24  and  C23_27 
REMARK    9  A    between atoms: C23_27  and  O5_28 
REMARK   10  A    between atoms: C23_27  and  C24_29 
REMARK   11  A    between atoms: C30_36  and  O7_37 
REMARK   12  A    between atoms: C35_42  and  O8_43 
ROOT
HETATM    1  C5  UNL     1      -9.335   7.138  15.437  1.00  0.00     0.122 C 
HETATM    2  C6  UNL     1      -8.879   5.770  15.942  1.00  0.00     0.033 C 
HETATM    3  C7  UNL     1      -7.365   5.570  15.837  1.00  0.00     0.013 C 
HETATM    4  C8  UNL     1      -6.784   5.874  14.418  1.00  0.00    -0.026 C 
HETATM    5  C9  UNL     1      -7.336   4.810  13.435  1.00  0.00     0.016 C 
HETATM    6  C10 UNL     1      -7.241   7.291  13.985  1.00  0.00     0.071 C 
HETATM    7  C11 UNL     1      -8.770   7.451  14.049  1.00  0.00     0.045 C 
HETATM    8  C12 UNL     1      -6.579   8.381  14.828  1.00  0.00     0.154 C 
HETATM    9  O3  UNL     1      -7.123   9.453  15.088  1.00  0.00    -0.293 OA
HETATM   10  C13 UNL     1      -5.187   8.184  15.282  1.00  0.00     0.057 C 
HETATM   11  C14 UNL     1      -4.543   7.026  15.075  1.00  0.00    -0.037 C 
HETATM   12  C15 UNL     1      -5.210   5.784  14.475  1.00  0.00     0.026 C 
HETATM   13  C16 UNL     1      -4.501   5.439  13.137  1.00  0.00     0.011 C 
HETATM   14  C17 UNL     1      -2.962   5.340  13.266  1.00  0.00     0.014 C 
HETATM   15  C18 UNL     1      -2.348   6.593  13.917  1.00  0.00    -0.002 C 
HETATM   16  C19 UNL     1      -2.551   7.800  12.960  1.00  0.00     0.019 C 
HETATM   17  C20 UNL     1      -0.873   6.443  14.415  1.00  0.00     0.034 C 
HETATM   18  C33 UNL     1      -0.738   7.544  15.505  1.00  0.00     0.012 C 
HETATM   19  C34 UNL     1      -2.175   7.941  15.916  1.00  0.00     0.044 C 
HETATM   20  C35 UNL     1      -3.060   6.851  15.295  1.00  0.00     0.089 C 
ENDROOT
BRANCH  17  21
HETATM   21  C21 UNL     1       0.373   6.171  13.494  1.00  0.00     0.087 C 
HETATM   22  C22 UNL     1       0.033   4.961  12.576  1.00  0.00     0.049 C 
BRANCH  21  23
HETATM   23  O4  UNL     1       1.424   5.694  14.353  1.00  0.00    -0.387 OA
HETATM   24  H34 UNL     1       1.097   4.900  14.811  1.00  0.00     0.210 HD
ENDBRANCH  21  23
BRANCH  21  25
HETATM   25  C23 UNL     1       0.939   7.314  12.575  1.00  0.00     0.181 C 
BRANCH  25  26
HETATM   26  O5  UNL     1      -0.067   8.330  12.341  1.00  0.00    -0.390 OA
HETATM   27  H36 UNL     1       0.369   9.088  11.915  1.00  0.00     0.210 HD
ENDBRANCH  25  26
BRANCH  25  28
HETATM   28  C24 UNL     1       1.600   7.003  11.209  1.00  0.00     0.158 C 
HETATM   29  O6  UNL     1       1.343   7.950  10.168  1.00  0.00    -0.374 OA
HETATM   30  C25 UNL     1       2.558   8.136   9.413  1.00  0.00     0.159 C 
HETATM   31  C26 UNL     1       3.381   6.867   9.635  1.00  0.00     0.027 C 
HETATM   32  C30 UNL     1       2.287   8.495   7.940  1.00  0.00     0.170 C 
HETATM   33  C27 UNL     1       2.943   5.683   8.745  1.00  0.00     0.034 C 
HETATM   34  C31 UNL     1       3.088   6.584  11.116  1.00  0.00     0.020 C 
HETATM   35  C28 UNL     1       2.492   6.066   7.371  1.00  0.00    -0.028 C 
HETATM   36  C29 UNL     1       2.195   7.322   7.014  1.00  0.00     0.003 C 
HETATM   37  C32 UNL     1       4.080   7.325  12.010  1.00  0.00     0.013 C 
BRANCH  32  38
HETATM   38  O7  UNL     1       3.347   9.314   7.439  1.00  0.00    -0.389 OA
HETATM   39  H45 UNL     1       4.111   8.731   7.287  1.00  0.00     0.210 HD
ENDBRANCH  32  38
ENDBRANCH  25  28
ENDBRANCH  21  25
ENDBRANCH  17  21
BRANCH  20  40
HETATM   40  O8  UNL     1      -2.938   5.705  16.156  1.00  0.00    -0.384 OA
HETATM   41  H54 UNL     1      -3.324   5.953  17.014  1.00  0.00     0.211 HD
ENDBRANCH  20  40
BRANCH   1  42
HETATM   42  O2  UNL     1     -10.763   7.124  15.328  1.00  0.00    -0.386 OA
BRANCH  42  43
HETATM   43  C4  UNL     1     -11.245   6.669  14.063  1.00  0.00     0.170 C 
BRANCH  43  44
HETATM   44  C3  UNL     1     -12.754   6.449  14.112  1.00  0.00     0.052 C 
BRANCH  44  45
HETATM   45  C2  UNL     1     -13.503   7.589  13.432  1.00  0.00     0.169 C 
BRANCH  45  46
HETATM   46  O1  UNL     1     -14.229   7.140  12.286  1.00  0.00    -0.396 OA
HETATM   47  C1  UNL     1     -15.638   7.259  12.427  1.00  0.00     0.201 C 
ENDBRANCH  45  46
ENDBRANCH  44  45
ENDBRANCH  43  44
ENDBRANCH  42  43
ENDBRANCH   1  42
TORSDOF 12
ENDMDL
