MODEL 1
REMARK minimizedAffinity -9.03791523
REMARK  9 active torsions:
REMARK  status: ('A' for Active; 'I' for Inactive)
REMARK    1  A    between atoms: C12_14  and  C13_15 
REMARK    2  A    between atoms: C13_15  and  C15_17 
REMARK    3  A    between atoms: C15_17  and  C16_18 
REMARK    4  A    between atoms: C16_18  and  C17_19 
REMARK    5  A    between atoms: C18_20  and  C20_22 
REMARK    6  A    between atoms: C26_29  and  C27_30 
REMARK    7  A    between atoms: C27_30  and  C28_31 
REMARK    8  A    between atoms: C28_31  and  C29_32 
REMARK    9  A    between atoms: C29_32  and  O5_34 
ROOT
HETATM    1  C1  UNL     1     -10.396   6.693  14.394  1.00  0.00     0.025 C 
HETATM    2  C2  UNL     1      -9.140   6.851  14.832  1.00  0.00     0.015 C 
HETATM    3  C3  UNL     1      -8.666   8.177  15.287  1.00  0.00     0.289 C 
HETATM    4  O1  UNL     1      -9.195   9.251  15.071  1.00  0.00    -0.260 OA
HETATM    5  O2  UNL     1      -7.523   7.983  15.993  1.00  0.00    -0.311 OA
HETATM    6  C4  UNL     1      -7.299   6.577  16.175  1.00  0.00     0.142 C 
HETATM    7  C5  UNL     1      -5.807   6.298  16.211  1.00  0.00     0.039 C 
HETATM    8  C6  UNL     1      -5.133   6.710  14.895  1.00  0.00     0.006 C 
HETATM    9  C7  UNL     1      -5.710   5.883  13.723  1.00  0.00    -0.027 A 
HETATM   10  C8  UNL     1      -4.705   5.004  12.968  1.00  0.00     0.011 C 
HETATM   11  C9  UNL     1      -3.316   5.612  12.691  1.00  0.00     0.011 C 
HETATM   12  C10 UNL     1      -2.979   6.858  13.523  1.00  0.00    -0.032 C 
HETATM   13  C11 UNL     1      -3.536   8.107  12.776  1.00  0.00     0.016 C 
HETATM   14  C12 UNL     1      -1.464   7.097  13.839  1.00  0.00    -0.002 C 
HETATM   15  C21 UNL     1      -1.524   7.964  15.132  1.00  0.00     0.006 C 
HETATM   16  C22 UNL     1      -2.940   7.835  15.718  1.00  0.00     0.011 C 
HETATM   17  C23 UNL     1      -3.578   6.655  14.961  1.00  0.00    -0.032 C 
HETATM   18  C24 UNL     1      -3.092   5.360  15.688  1.00  0.00     0.016 C 
HETATM   19  C25 UNL     1      -6.790   6.514  12.863  1.00  0.00     0.022 A 
HETATM   20  C26 UNL     1      -7.206   5.437  13.838  1.00  0.00    -0.021 A 
HETATM   21  C30 UNL     1      -8.055   5.848  15.067  1.00  0.00     0.063 C 
ENDROOT
BRANCH  14  22
HETATM   22  C13 UNL     1      -0.523   7.712  12.758  1.00  0.00    -0.014 C 
HETATM   23  C14 UNL     1      -1.063   9.046  12.226  1.00  0.00     0.010 C 
BRANCH  22  24
HETATM   24  C15 UNL     1      -0.325   6.713  11.583  1.00  0.00     0.008 C 
BRANCH  24  25
HETATM   25  C16 UNL     1       1.090   6.715  10.992  1.00  0.00     0.028 C 
BRANCH  25  26
HETATM   26  C17 UNL     1       1.056   6.987   9.514  1.00  0.00    -0.017 C 
HETATM   27  C18 UNL     1       2.059   7.460   8.749  1.00  0.00    -0.028 C 
HETATM   28  C19 UNL     1       3.423   7.869   9.205  1.00  0.00     0.051 C 
BRANCH  27  29
HETATM   29  C20 UNL     1       1.801   7.630   7.286  1.00  0.00     0.265 C 
HETATM   30  O3  UNL     1       1.918   6.734   6.459  1.00  0.00    -0.302 OA
ENDBRANCH  27  29
ENDBRANCH  25  26
ENDBRANCH  24  25
ENDBRANCH  22  24
ENDBRANCH  14  22
BRANCH  20  31
HETATM   31  C27 UNL     1      -7.555   4.047  13.284  1.00  0.00     0.021 C 
BRANCH  31  32
HETATM   32  C28 UNL     1      -6.501   3.453  12.356  1.00  0.00     0.111 C 
BRANCH  32  33
HETATM   33  C29 UNL     1      -6.820   2.028  11.994  1.00  0.00     0.139 C 
HETATM   34  O4  UNL     1      -6.229   1.310  11.205  1.00  0.00    -0.650 OA
BRANCH  33  35
HETATM   35  O5  UNL     1      -7.893   1.570  12.670  1.00  0.00    -0.776 OA
HETATM   36  H41 UNL     1      -8.002   0.650  12.350  1.00  0.00     0.167 HD
ENDBRANCH  33  35
ENDBRANCH  32  33
ENDBRANCH  31  32
ENDBRANCH  20  31
TORSDOF 9
ENDMDL
