MODEL 1
REMARK minimizedAffinity -8.53102303
REMARK CNNscore 0.342345715
REMARK CNNaffinity 7.13818359
REMARK  9 active torsions:
REMARK  status: ('A' for Active; 'I' for Inactive)
REMARK    1  A    between atoms: C13_13  and  S1_14 
REMARK    2  A    between atoms: C22_26  and  C23_27 
REMARK    3  A    between atoms: C23_27  and  O4_28 
REMARK    4  A    between atoms: C29_34  and  O5_35 
REMARK    5  A    between atoms: C41_48  and  C42_49 
REMARK    6  A    between atoms: C41_48  and  N1_58 
REMARK    7  A    between atoms: C42_49  and  C43_50 
REMARK    8  A    between atoms: C43_50  and  C44_51 
REMARK    9  A    between atoms: C44_51  and  O7_52 
REMARK       I    between atoms: C50_60  and  N2_61 
REMARK       I    between atoms: C50_60  and  N3_62 
ROOT
HETATM    1  C1  UNL     1     -16.373  46.203 -21.395  1.00  0.00     0.010 C 
HETATM    2  C2  UNL     1     -15.609  45.454 -22.487  1.00  0.00    -0.010 C 
HETATM    3  C3  UNL     1     -14.139  45.324 -22.066  1.00  0.00     0.009 C 
HETATM    4  C4  UNL     1     -13.307  44.704 -23.186  1.00  0.00     0.039 C 
HETATM    5  C5  UNL     1     -13.364  45.583 -24.404  1.00  0.00    -0.049 C 
HETATM    6  C6  UNL     1     -12.413  45.462 -25.410  1.00  0.00     0.044 C 
HETATM    7  C7  UNL     1     -12.544  46.212 -26.580  1.00  0.00     0.072 C 
HETATM    8  C8  UNL     1     -13.495  47.233 -26.655  1.00  0.00     0.037 C 
HETATM    9  C9  UNL     1     -14.469  47.338 -25.669  1.00  0.00     0.011 C 
HETATM   10  C10 UNL     1     -14.471  46.439 -24.589  1.00  0.00    -0.047 C 
HETATM   11  C11 UNL     1     -15.806  46.130 -23.874  1.00  0.00     0.024 C 
HETATM   12  C12 UNL     1     -16.518  45.195 -24.892  1.00  0.00     0.033 C 
HETATM   13  C13 UNL     1     -17.867  44.510 -24.624  1.00  0.00     0.139 C 
HETATM   14  C14 UNL     1     -17.992  43.258 -25.577  1.00  0.00     0.037 C 
HETATM   15  C15 UNL     1     -19.149  42.326 -25.256  1.00  0.00    -0.014 C 
HETATM   16  C16 UNL     1     -20.068  41.990 -26.186  1.00  0.00    -0.050 C 
HETATM   17  C17 UNL     1     -20.056  42.690 -27.512  1.00  0.00     0.042 C 
HETATM   18  C18 UNL     1     -18.626  42.545 -28.027  1.00  0.00    -0.001 C 
HETATM   19  C19 UNL     1     -18.122  41.065 -28.036  1.00  0.00     0.037 C 
HETATM   20  C20 UNL     1     -19.208  39.955 -28.019  1.00  0.00     0.123 C 
HETATM   21  C21 UNL     1     -18.581  38.613 -28.464  1.00  0.00     0.039 C 
HETATM   22  C22 UNL     1     -19.622  37.508 -28.808  1.00  0.00     0.023 C 
HETATM   23  C24 UNL     1     -19.878  36.514 -27.647  1.00  0.00     0.101 C 
HETATM   24  C25 UNL     1     -20.626  37.109 -26.546  1.00  0.00    -0.101 C 
HETATM   25  C26 UNL     1     -21.145  37.755 -25.673  1.00  0.00    -0.066 C 
HETATM   26  C27 UNL     1     -21.603  38.731 -24.739  1.00  0.00     0.029 A 
HETATM   27  C28 UNL     1     -22.285  38.282 -23.601  1.00  0.00     0.057 A 
HETATM   28  C29 UNL     1     -22.769  39.196 -22.675  1.00  0.00     0.067 A 
HETATM   29  C30 UNL     1     -22.596  40.560 -22.868  1.00  0.00     0.037 A 
HETATM   30  C31 UNL     1     -21.923  41.019 -24.008  1.00  0.00     0.014 A 
HETATM   31  C32 UNL     1     -21.391  40.116 -24.953  1.00  0.00    -0.006 A 
HETATM   32  C33 UNL     1     -20.728  40.641 -26.229  1.00  0.00     0.185 C 
HETATM   33  O6  UNL     1     -19.675  39.760 -26.678  1.00  0.00    -0.371 OA
HETATM   34  C34 UNL     1     -17.782  43.514 -27.135  1.00  0.00     0.031 C 
HETATM   35  C35 UNL     1     -16.333  43.616 -27.619  1.00  0.00     0.051 A 
HETATM   36  C36 UNL     1     -15.958  44.702 -28.423  1.00  0.00     0.004 A 
HETATM   37  C37 UNL     1     -14.609  44.961 -28.700  1.00  0.00     0.008 A 
HETATM   38  C38 UNL     1     -13.591  44.143 -28.169  1.00  0.00    -0.003 A 
HETATM   39  C39 UNL     1     -13.988  42.990 -27.474  1.00  0.00     0.114 A 
HETATM   40  C40 UNL     1     -15.335  42.726 -27.210  1.00  0.00     0.064 A 
HETATM   41  C41 UNL     1     -12.079  44.550 -28.257  1.00  0.00     0.169 C 
HETATM   42  O8  UNL     1     -11.852  45.914 -27.727  1.00  0.00    -0.316 OA
HETATM   43 NA1  UNL     1     -15.964  42.737 -27.332  1.00  0.00    -0.401 Na
ATOM     44  HA1 UNL     1     -16.475  41.904 -27.036  1.00  0.00     0.155 HD
ENDROOT
BRANCH  41  45
HETATM   45  C42 UNL     1     -11.734  44.687 -29.768  1.00  0.00     0.070 C 
BRANCH  45  46
HETATM   46  C43 UNL     1     -11.367  46.111 -30.236  1.00  0.00     0.043 C 
BRANCH  46  47
HETATM   47  C44 UNL     1      -9.870  46.307 -30.567  1.00  0.00     0.058 C 
HETATM   48  C45 UNL     1      -9.744  46.702 -32.059  1.00  0.00     0.038 C 
HETATM   49  C46 UNL     1      -8.494  47.537 -32.324  1.00  0.00     0.003 C 
HETATM   50  C47 UNL     1      -8.528  48.853 -31.542  1.00  0.00     0.000 C 
HETATM   51  C48 UNL     1      -9.253  48.738 -30.199  1.00  0.00     0.003 C 
HETATM   52  C49 UNL     1      -9.162  47.325 -29.648  1.00  0.00     0.038 C 
BRANCH  47  53
HETATM   53  O7  UNL     1      -9.185  45.062 -30.389  1.00  0.00    -0.390 OA
HETATM   54  H46 UNL     1      -9.836  44.339 -30.508  1.00  0.00     0.210 HD
ENDBRANCH  47  53
ENDBRANCH  46  47
ENDBRANCH  45  46
ENDBRANCH  41  45
BRANCH  41  55
HETATM   55  N1  UNL     1     -11.252  43.536 -27.577  1.00  0.00    -0.336 N 
HETATM   56  C50 UNL     1     -10.040  43.535 -27.233  1.00  0.00     0.124 C 
HETATM   57  N2  UNL     1      -9.547  42.439 -26.623  1.00  0.00    -0.279 NA
HETATM   58  N3  UNL     1      -9.056  44.459 -27.341  1.00  0.00    -0.279 NA
HETATM   59  H57 UNL     1     -10.277  41.756 -26.442  1.00  0.00     0.126 HD
HETATM   60  H58 UNL     1      -8.961  42.603 -25.808  1.00  0.00     0.126 HD
HETATM   61  H59 UNL     1      -9.234  45.258 -26.729  1.00  0.00     0.126 HD
HETATM   62  H60 UNL     1      -8.162  44.058 -27.084  1.00  0.00     0.126 HD
ATOM     63  H1  UNL     1     -11.753  42.679 -27.342  1.00  0.00     0.165 HD
ENDBRANCH  41  55
BRANCH  13  64
HETATM   64  S1  UNL     1     -19.247  45.654 -24.726  1.00  0.00     0.106 S 
HETATM   65  O1  UNL     1     -20.352  45.000 -24.033  1.00  0.00    -0.595 OA
HETATM   66  O2  UNL     1     -19.451  45.808 -26.171  1.00  0.00    -0.595 OA
HETATM   67  O3  UNL     1     -18.769  46.876 -24.083  1.00  0.00    -0.595 OA
ENDBRANCH  13  64
BRANCH  22  68
HETATM   68  C23 UNL     1     -19.126  36.694 -30.020  1.00  0.00     0.169 C 
BRANCH  68  69
HETATM   69  O4  UNL     1     -18.578  37.539 -31.028  1.00  0.00    -0.400 OA
HETATM   70  H29 UNL     1     -17.847  38.052 -30.635  1.00  0.00     0.209 HD
ENDBRANCH  68  69
ENDBRANCH  22  68
BRANCH  28  71
HETATM   71  O5  UNL     1     -23.428  38.706 -21.584  1.00  0.00    -0.361 OA
HETATM   72  H33 UNL     1     -23.709  39.463 -21.044  1.00  0.00     0.217 HD
ENDBRANCH  28  71
TORSDOF 9
ENDMDL
