MODEL 1
REMARK minimizedAffinity -6.88258028
REMARK CNNscore 0.490006715
REMARK CNNaffinity 5.57713079
REMARK  4 active torsions:
REMARK  status: ('A' for Active; 'I' for Inactive)
REMARK    1  A    between atoms: C4_4  and  C5_5 
REMARK    2  A    between atoms: C5_5  and  C6_6 
REMARK    3  A    between atoms: C6_6  and  C7_7 
REMARK    4  A    between atoms: C7_7  and  C9_9 
ROOT
HETATM    1  C9  UNL     1      -3.501 -11.930   3.352  1.00  0.00    -0.002 C 
HETATM    2  C10 UNL     1      -2.371 -12.629   4.163  1.00  0.00     0.007 C 
HETATM    3  C11 UNL     1      -2.667 -12.397   5.657  1.00  0.00     0.015 C 
HETATM    4  C12 UNL     1      -4.108 -11.847   5.695  1.00  0.00    -0.013 C 
HETATM    5  C13 UNL     1      -5.046 -13.092   5.653  1.00  0.00     0.021 C 
HETATM    6  C14 UNL     1      -4.539 -11.035   6.908  1.00  0.00    -0.070 C 
HETATM    7  C15 UNL     1      -3.942 -11.117   8.111  1.00  0.00    -0.022 C 
HETATM    8  C16 UNL     1      -4.469 -10.370   9.298  1.00  0.00     0.034 C 
HETATM    9  C17 UNL     1      -6.004 -10.411   9.260  1.00  0.00     0.013 C 
HETATM   10  C18 UNL     1      -6.707  -9.997  10.590  1.00  0.00     0.018 C 
HETATM   11  C19 UNL     1      -6.682 -11.176  11.587  1.00  0.00     0.023 C 
HETATM   12  C20 UNL     1      -6.054  -8.788  11.283  1.00  0.00     0.023 C 
HETATM   13  C21 UNL     1      -8.187  -9.699  10.314  1.00  0.00     0.135 C 
HETATM   14  O1  UNL     1      -8.868  -9.011  11.078  1.00  0.00    -0.297 OA
HETATM   15  C22 UNL     1      -8.833 -10.371   9.119  1.00  0.00     0.080 C 
HETATM   16  C23 UNL     1      -8.024 -10.290   7.819  1.00  0.00     0.017 C 
HETATM   17  C24 UNL     1      -6.583  -9.732   7.966  1.00  0.00    -0.031 C 
HETATM   18  C25 UNL     1      -6.677  -8.185   8.073  1.00  0.00     0.016 C 
HETATM   19  C26 UNL     1      -5.660 -10.014   6.693  1.00  0.00     0.024 C 
HETATM   20  C27 UNL     1      -6.426 -10.195   5.359  1.00  0.00     0.010 C 
HETATM   21  C28 UNL     1      -5.562 -10.483   4.110  1.00  0.00     0.011 C 
HETATM   22  C29 UNL     1      -4.121 -10.951   4.404  1.00  0.00    -0.029 C 
HETATM   23  C30 UNL     1      -3.203  -9.692   4.517  1.00  0.00     0.016 C 
ENDROOT
BRANCH   1  24
HETATM   24  C7  UNL     1      -2.995 -11.375   1.991  1.00  0.00    -0.014 C 
HETATM   25  C8  UNL     1      -1.638 -10.672   2.099  1.00  0.00     0.010 C 
BRANCH  24  26
HETATM   26  C6  UNL     1      -4.034 -10.469   1.274  1.00  0.00     0.008 C 
BRANCH  26  27
HETATM   27  C5  UNL     1      -5.284 -11.126   0.668  1.00  0.00     0.028 C 
BRANCH  27  28
HETATM   28  C4  UNL     1      -5.982 -10.315  -0.384  1.00  0.00    -0.025 C 
HETATM   29  C2  UNL     1      -5.723 -10.298  -1.706  1.00  0.00    -0.091 C 
HETATM   30  C1  UNL     1      -6.535  -9.437  -2.638  1.00  0.00     0.042 C 
HETATM   31  C3  UNL     1      -4.636 -11.087  -2.379  1.00  0.00     0.042 C 
ENDBRANCH  27  28
ENDBRANCH  26  27
ENDBRANCH  24  26
ENDBRANCH   1  24
TORSDOF 4
ENDMDL
