MODEL 1
REMARK minimizedAffinity -7.88737774
REMARK CNNscore 0.589928687
REMARK CNNaffinity 6.17532587
REMARK  8 active torsions:
REMARK  status: ('A' for Active; 'I' for Inactive)
REMARK    1  A    between atoms: C11_11  and  O1_12 
REMARK    2  A    between atoms: O1_12  and  C12_13 
REMARK    3  A    between atoms: C14_16  and  O3_17 
REMARK    4  A    between atoms: C15_18  and  O4_19 
REMARK    5  A    between atoms: C16_20  and  O5_21 
REMARK    6  A    between atoms: C19_24  and  C20_25 
REMARK    7  A    between atoms: C21_27  and  O7_28 
REMARK    8  A    between atoms: C24_31  and  C25_32 
ROOT
HETATM    1  C1  UNL     1       4.214  57.625  -4.883  1.00  0.00     0.019 C 
HETATM    2  C2  UNL     1       4.543  57.002  -6.256  1.00  0.00    -0.005 C 
HETATM    3  C3  UNL     1       3.587  57.610  -7.316  1.00  0.00     0.013 C 
HETATM    4  C4  UNL     1       2.143  57.134  -7.185  1.00  0.00     0.007 C 
HETATM    5  C5  UNL     1       2.030  55.599  -7.271  1.00  0.00     0.012 C 
HETATM    6  C6  UNL     1       2.961  54.928  -6.208  1.00  0.00     0.027 C 
HETATM    7  C7  UNL     1       2.899  53.386  -6.317  1.00  0.00     0.012 C 
HETATM    8  C8  UNL     1       1.476  52.841  -6.243  1.00  0.00     0.036 C 
HETATM    9  C9  UNL     1       0.614  53.534  -7.268  1.00  0.00    -0.065 C 
HETATM   10  C10 UNL     1       0.043  52.823  -8.261  1.00  0.00     0.009 C 
HETATM   11  C11 UNL     1      -0.643  53.419  -9.452  1.00  0.00     0.148 C 
HETATM   12  C17 UNL     1      -0.266  54.892  -9.625  1.00  0.00     0.037 C 
HETATM   13  C18 UNL     1      -0.379  55.635  -8.296  1.00  0.00     0.024 C 
HETATM   14  C19 UNL     1       0.555  55.065  -7.182  1.00  0.00     0.040 C 
HETATM   15  C21 UNL     1       4.425  55.452  -6.249  1.00  0.00     0.070 C 
HETATM   16  C22 UNL     1       5.228  55.040  -7.490  1.00  0.00     0.040 C 
HETATM   17  C23 UNL     1       6.429  55.984  -7.509  1.00  0.00     0.013 C 
HETATM   18  C24 UNL     1       6.023  57.261  -6.731  1.00  0.00     0.028 C 
ENDROOT
BRANCH  11  19
HETATM   19  O1  UNL     1      -2.043  53.296  -9.218  1.00  0.00    -0.349 OA
BRANCH  19  20
HETATM   20  C12 UNL     1      -2.706  52.499 -10.202  1.00  0.00     0.291 C 
HETATM   21  O2  UNL     1      -1.798  51.610 -10.857  1.00  0.00    -0.356 OA
HETATM   22  C13 UNL     1      -1.253  52.161 -12.060  1.00  0.00     0.205 C 
HETATM   23  C14 UNL     1      -2.359  52.276 -13.116  1.00  0.00     0.173 C 
HETATM   24  C15 UNL     1      -3.681  52.771 -12.498  1.00  0.00     0.182 C 
HETATM   25  C16 UNL     1      -3.425  53.471 -11.165  1.00  0.00     0.204 C 
BRANCH  23  26
HETATM   26  O3  UNL     1      -2.571  50.982 -13.705  1.00  0.00    -0.391 OA
HETATM   27  H20 UNL     1      -2.702  50.346 -12.978  1.00  0.00     0.210 HD
ENDBRANCH  23  26
BRANCH  24  28
HETATM   28  O4  UNL     1      -4.330  53.689 -13.390  1.00  0.00    -0.390 OA
HETATM   29  H22 UNL     1      -5.085  54.052 -12.885  1.00  0.00     0.210 HD
ENDBRANCH  24  28
BRANCH  25  30
HETATM   30  O5  UNL     1      -4.670  53.929 -10.611  1.00  0.00    -0.388 OA
HETATM   31  H24 UNL     1      -4.440  54.388  -9.780  1.00  0.00     0.210 HD
ENDBRANCH  25  30
ENDBRANCH  19  20
ENDBRANCH  11  19
BRANCH  14  32
HETATM   32  C20 UNL     1      -0.103  55.547  -5.866  1.00  0.00     0.245 C 
HETATM   33  O6  UNL     1      -1.093  55.065  -5.327  1.00  0.00    -0.306 OA
ENDBRANCH  14  32
BRANCH  15  34
HETATM   34  O7  UNL     1       5.121  54.954  -5.098  1.00  0.00    -0.389 OA
HETATM   35  H30 UNL     1       5.234  53.992  -5.187  1.00  0.00     0.210 HD
ENDBRANCH  15  34
BRANCH  18  36
HETATM   36  C25 UNL     1       7.027  57.663  -5.682  1.00  0.00    -0.045 A 
HETATM   37  C26 UNL     1       7.203  58.843  -5.084  1.00  0.00     0.087 A 
HETATM   38  C27 UNL     1       8.307  58.689  -4.138  1.00  0.00     0.283 A 
HETATM   39  O8  UNL     1       8.731  59.570  -3.414  1.00  0.00    -0.260 OA
HETATM   40  O9  UNL     1       8.765  57.410  -4.191  1.00  0.00    -0.314 OA
HETATM   41  C28 UNL     1       8.002  56.681  -5.150  1.00  0.00     0.213 A 
ENDBRANCH  18  36
TORSDOF 8
ENDMDL
