MODEL 1
REMARK minimizedAffinity -7.71084023
REMARK CNNscore 0.583771586
REMARK CNNaffinity 7.80201006
REMARK  12 active torsions:
REMARK  status: ('A' for Active; 'I' for Inactive)
REMARK    1  A    between atoms: C2_2  and  C3_3 
REMARK    2  A    between atoms: C2_2  and  C9_10 
REMARK    3  A    between atoms: C3_3  and  C4_4 
REMARK    4  A    between atoms: C5_5  and  C6_6 
REMARK    5  A    between atoms: C6_6  and  O1_9 
REMARK    6  A    between atoms: C27_29  and  O3_30 
REMARK    7  A    between atoms: O3_30  and  C28_31 
REMARK    8  A    between atoms: C29_33  and  C30_34 
REMARK    9  A    between atoms: C30_34  and  O5_35 
REMARK   10  A    between atoms: C31_36  and  O6_37 
REMARK   11  A    between atoms: C32_38  and  O7_39 
REMARK   12  A    between atoms: C33_40  and  O8_41 
ROOT
HETATM    1  C9  UNL     1     -12.157   9.167  14.814  1.00  0.00    -0.002 C 
HETATM    2  C10 UNL     1     -12.407   8.880  13.307  1.00  0.00     0.006 C 
HETATM    3  C11 UNL     1     -11.281   7.912  12.846  1.00  0.00     0.011 C 
HETATM    4  C12 UNL     1     -10.616   7.425  14.148  1.00  0.00    -0.029 C 
HETATM    5  C13 UNL     1     -11.552   6.271  14.685  1.00  0.00     0.016 C 
HETATM    6  C14 UNL     1      -9.182   6.791  14.090  1.00  0.00     0.028 C 
HETATM    7  C15 UNL     1      -8.362   6.791  12.824  1.00  0.00    -0.021 C 
HETATM    8  C16 UNL     1      -7.086   6.360  12.884  1.00  0.00     0.008 C 
HETATM    9  C17 UNL     1      -6.398   6.094  14.229  1.00  0.00     0.092 C 
HETATM   10  O2  UNL     1      -7.064   4.959  14.849  1.00  0.00    -0.374 OA
HETATM   11  C18 UNL     1      -7.989   5.481  15.845  1.00  0.00     0.179 C 
HETATM   12  C19 UNL     1      -8.281   6.948  15.402  1.00  0.00    -0.004 C 
HETATM   13  C20 UNL     1      -8.841   7.824  16.552  1.00  0.00     0.014 C 
HETATM   14  C21 UNL     1     -10.270   8.379  16.442  1.00  0.00     0.011 C 
HETATM   15  C22 UNL     1     -10.673   8.730  15.008  1.00  0.00    -0.032 C 
HETATM   16  C23 UNL     1      -9.744   9.829  14.467  1.00  0.00     0.016 C 
HETATM   17  C24 UNL     1      -6.771   7.266  15.133  1.00  0.00     0.036 C 
HETATM   18  C25 UNL     1      -6.268   8.605  14.596  1.00  0.00     0.011 C 
HETATM   19  C26 UNL     1      -4.992   8.478  13.755  1.00  0.00     0.033 C 
HETATM   20  C27 UNL     1      -4.091   7.281  14.084  1.00  0.00     0.136 C 
HETATM   21  C34 UNL     1      -4.846   5.896  14.186  1.00  0.00     0.014 C 
HETATM   22  C35 UNL     1      -4.455   4.910  13.052  1.00  0.00     0.021 C 
HETATM   23  C36 UNL     1      -4.349   5.209  15.496  1.00  0.00     0.021 C 
ENDROOT
BRANCH  20  24
HETATM   24  O3  UNL     1      -3.043   7.156  13.109  1.00  0.00    -0.352 OA
BRANCH  24  25
HETATM   25  C28 UNL     1      -1.801   7.775  13.449  1.00  0.00     0.292 C 
HETATM   26  O4  UNL     1      -0.771   7.438  12.514  1.00  0.00    -0.348 OA
HETATM   27  C29 UNL     1      -0.106   6.179  12.699  1.00  0.00     0.179 C 
HETATM   28  C31 UNL     1       0.557   6.112  14.090  1.00  0.00     0.180 C 
HETATM   29  C32 UNL     1       0.055   7.210  15.028  1.00  0.00     0.183 C 
HETATM   30  C33 UNL     1      -1.446   7.376  14.898  1.00  0.00     0.204 C 
BRANCH  27  31
HETATM   31  C30 UNL     1      -1.016   4.961  12.433  1.00  0.00     0.198 C 
BRANCH  31  32
HETATM   32  O5  UNL     1      -0.920   4.569  11.064  1.00  0.00    -0.398 OA
HETATM   33  H46 UNL     1      -1.788   4.216  10.802  1.00  0.00     0.209 HD
ENDBRANCH  31  32
ENDBRANCH  27  31
BRANCH  28  34
HETATM   34  O6  UNL     1       1.987   6.267  13.997  1.00  0.00    -0.390 OA
HETATM   35  H48 UNL     1       2.166   7.042  13.433  1.00  0.00     0.210 HD
ENDBRANCH  28  34
BRANCH  29  36
HETATM   36  O7  UNL     1       0.387   6.863  16.382  1.00  0.00    -0.390 OA
HETATM   37  H50 UNL     1       1.341   6.657  16.372  1.00  0.00     0.210 HD
ENDBRANCH  29  36
BRANCH  30  38
HETATM   38  O8  UNL     1      -1.885   8.373  15.837  1.00  0.00    -0.388 OA
HETATM   39  H52 UNL     1      -1.505   8.094  16.696  1.00  0.00     0.210 HD
ENDBRANCH  30  38
ENDBRANCH  24  25
ENDBRANCH  20  24
BRANCH   1  40
HETATM   40  C2  UNL     1     -12.677  10.531  15.362  1.00  0.00    -0.010 C 
HETATM   41  C1  UNL     1     -12.799  11.510  14.173  1.00  0.00     0.010 C 
BRANCH  40  42
HETATM   42  C3  UNL     1     -11.865  11.204  16.496  1.00  0.00     0.031 C 
BRANCH  42  43
HETATM   43  C4  UNL     1     -11.073  12.426  16.088  1.00  0.00    -0.027 C 
HETATM   44  C5  UNL     1      -9.736  12.529  16.169  1.00  0.00     0.006 C 
BRANCH  44  45
HETATM   45  C6  UNL     1      -8.880  13.713  15.798  1.00  0.00     0.068 C 
HETATM   46  C7  UNL     1      -9.040  14.194  14.352  1.00  0.00     0.050 C 
HETATM   47  C8  UNL     1      -9.155  14.858  16.777  1.00  0.00     0.050 C 
BRANCH  45  48
HETATM   48  O1  UNL     1      -7.526  13.292  15.977  1.00  0.00    -0.387 OA
HETATM   49  H15 UNL     1      -6.950  14.025  15.699  1.00  0.00     0.211 HD
ENDBRANCH  45  48
ENDBRANCH  44  45
ENDBRANCH  42  43
ENDBRANCH  40  42
ENDBRANCH   1  40
TORSDOF 12
ENDMDL
