MODEL 1
REMARK minimizedAffinity -7.6995163
REMARK CNNscore 0.578932822
REMARK CNNaffinity 6.27554178
REMARK  15 active torsions:
REMARK  status: ('A' for Active; 'I' for Inactive)
REMARK    1  A    between atoms: N1_2  and  C2_3 
REMARK    2  A    between atoms: C2_3  and  C3_4 
REMARK    3  A    between atoms: C3_4  and  C4_5 
REMARK    4  A    between atoms: C4_5  and  C5_6 
REMARK    5  A    between atoms: C4_5  and  C6_9 
REMARK    6  A    between atoms: C5_6  and  O2_8 
REMARK    7  A    between atoms: C6_9  and  C7_11 
REMARK    8  A    between atoms: C7_11  and  O4_12 
REMARK    9  A    between atoms: C7_11  and  C8_13 
REMARK   10  A    between atoms: C8_13  and  C9_14 
REMARK   11  A    between atoms: C9_14  and  C11_16 
REMARK   12  A    between atoms: C13_18  and  O5_19 
REMARK   13  A    between atoms: C16_22  and  O6_23 
REMARK   14  A    between atoms: C34_43  and  C35_44 
REMARK   15  A    between atoms: C36_45  and  C37_46 
ROOT
HETATM    1  C11 UNL     1     -16.906   4.970  14.454  1.00  0.00     0.002 C 
HETATM    2  C12 UNL     1     -16.785   5.112  15.999  1.00  0.00     0.049 C 
HETATM    3  C13 UNL     1     -16.583   6.614  16.308  1.00  0.00     0.088 C 
HETATM    4  C14 UNL     1     -15.434   6.917  17.215  1.00  0.00     0.011 C 
HETATM    5  C15 UNL     1     -14.716   8.043  17.082  1.00  0.00     0.015 C 
HETATM    6  C16 UNL     1     -14.908   9.063  15.981  1.00  0.00     0.108 C 
HETATM    7  C17 UNL     1     -15.505   8.466  14.732  1.00  0.00    -0.018 C 
HETATM    8  C18 UNL     1     -15.188   8.910  13.493  1.00  0.00     0.003 C 
HETATM    9  C19 UNL     1     -15.692   8.086  12.308  1.00  0.00     0.157 C 
HETATM   10  O7  UNL     1     -15.711   8.551  11.170  1.00  0.00    -0.293 OA
HETATM   11  C20 UNL     1     -16.181   6.644  12.520  1.00  0.00     0.094 C 
HETATM   12  C21 UNL     1     -15.998   6.145  13.959  1.00  0.00    -0.019 C 
HETATM   13  C22 UNL     1     -14.499   5.744  14.115  1.00  0.00     0.017 C 
HETATM   14  C23 UNL     1     -16.481   7.305  14.905  1.00  0.00     0.026 C 
HETATM   15  C24 UNL     1     -17.902   7.875  14.543  1.00  0.00     0.025 C 
HETATM   16  C25 UNL     1     -14.420  10.227  13.228  1.00  0.00    -0.007 C 
HETATM   17  C26 UNL     1     -13.324  10.014  12.144  1.00  0.00     0.021 C 
HETATM   18  C27 UNL     1     -15.461  11.240  12.672  1.00  0.00     0.022 C 
HETATM   19  C28 UNL     1     -16.367  11.804  13.754  1.00  0.00     0.080 C 
HETATM   20  C29 UNL     1     -15.578  12.610  14.748  1.00  0.00     0.135 C 
HETATM   21  O8  UNL     1     -16.123  13.549  15.345  1.00  0.00    -0.297 OA
HETATM   22  C30 UNL     1     -14.087  12.302  14.934  1.00  0.00     0.018 C 
HETATM   23  C31 UNL     1     -13.710  12.653  16.389  1.00  0.00     0.023 C 
HETATM   24  C32 UNL     1     -13.308  13.324  14.059  1.00  0.00     0.023 C 
HETATM   25  C33 UNL     1     -13.676  10.827  14.516  1.00  0.00     0.025 C 
HETATM   26  C34 UNL     1     -13.561   9.785  15.678  1.00  0.00     0.057 C 
ENDROOT
BRANCH   1  27
HETATM   27  C9  UNL     1     -16.627   3.512  13.955  1.00  0.00    -0.011 C 
HETATM   28  C10 UNL     1     -17.676   3.073  12.928  1.00  0.00     0.010 C 
BRANCH  27  29
HETATM   29  C8  UNL     1     -16.543   2.531  15.162  1.00  0.00     0.044 C 
BRANCH  29  30
HETATM   30  C7  UNL     1     -15.295   1.637  15.284  1.00  0.00     0.188 C 
BRANCH  30  31
HETATM   31  C6  UNL     1     -15.347   0.673  16.485  1.00  0.00     0.169 C 
HETATM   32  O3  UNL     1     -14.729   0.915  17.525  1.00  0.00    -0.294 OA
BRANCH  31  33
HETATM   33  C4  UNL     1     -16.114  -0.622  16.290  1.00  0.00     0.157 C 
BRANCH  33  34
HETATM   34  C3  UNL     1     -15.165  -1.730  15.790  1.00  0.00     0.053 C 
BRANCH  34  35
HETATM   35  C2  UNL     1     -15.548  -2.244  14.396  1.00  0.00     0.270 C 
BRANCH  35  36
HETATM   36  N1  UNL     1     -14.514  -2.001  13.384  1.00  0.00     0.079 N 
HETATM   37  C1  UNL     1     -15.023  -2.148  12.020  1.00  0.00     0.306 C 
HETATM   38  H4  UNL     1     -13.759  -2.678  13.514  1.00  0.00     0.315 HD
ENDBRANCH  35  36
ENDBRANCH  34  35
ENDBRANCH  33  34
BRANCH  33  39
HETATM   39  C5  UNL     1     -16.817  -1.019  17.563  1.00  0.00     0.151 C 
HETATM   40  O1  UNL     1     -16.384  -1.695  18.477  1.00  0.00    -0.649 OA
BRANCH  39  41
HETATM   41  O2  UNL     1     -18.072  -0.520  17.628  1.00  0.00    -0.776 OA
HETATM   42  H10 UNL     1     -18.389  -0.787  18.516  1.00  0.00     0.167 HD
ENDBRANCH  39  41
ENDBRANCH  33  39
ENDBRANCH  31  33
ENDBRANCH  30  31
BRANCH  30  43
HETATM   43  O4  UNL     1     -14.988   1.033  14.040  1.00  0.00    -0.388 OA
HETATM   44  H12 UNL     1     -15.686   0.393  13.818  1.00  0.00     0.210 HD
ENDBRANCH  30  43
ENDBRANCH  29  30
ENDBRANCH  27  29
ENDBRANCH   1  27
BRANCH   3  45
HETATM   45  O5  UNL     1     -17.714   7.097  17.039  1.00  0.00    -0.385 OA
HETATM   46  H22 UNL     1     -17.803   6.573  17.851  1.00  0.00     0.211 HD
ENDBRANCH   3  45
BRANCH   6  47
HETATM   47  O6  UNL     1     -15.838  10.013  16.488  1.00  0.00    -0.380 OA
HETATM   48  H25 UNL     1     -16.638   9.514  16.746  1.00  0.00     0.211 HD
ENDBRANCH   6  47
BRANCH  26  49
HETATM   49  C35 UNL     1     -12.404   8.819  15.402  1.00  0.00    -0.017 C 
HETATM   50  C36 UNL     1     -11.215   9.211  14.914  1.00  0.00     0.008 C 
BRANCH  50  51
HETATM   51  C37 UNL     1     -10.074   8.310  14.681  1.00  0.00    -0.036 A 
HETATM   52  C38 UNL     1      -8.869   8.567  15.340  1.00  0.00     0.011 A 
HETATM   53  C39 UNL     1      -7.773   7.713  15.183  1.00  0.00     0.001 A 
HETATM   54  C40 UNL     1      -7.887   6.581  14.379  1.00  0.00     0.000 A 
HETATM   55  C41 UNL     1      -9.092   6.299  13.733  1.00  0.00     0.001 A 
HETATM   56  C42 UNL     1     -10.178   7.163  13.883  1.00  0.00     0.011 A 
ENDBRANCH  50  51
ENDBRANCH  26  49
TORSDOF 15
ENDMDL
