MODEL 1
REMARK minimizedAffinity -9.41679382
REMARK CNNscore 0.686666787
REMARK CNNaffinity 7.54794693
REMARK  7 active torsions:
REMARK  status: ('A' for Active; 'I' for Inactive)
REMARK    1  A    between atoms: C2_2  and  C30_32 
REMARK    2  A    between atoms: C3_3  and  C4_4 
REMARK    3  A    between atoms: C4_4  and  O1_5 
REMARK    4  A    between atoms: C4_4  and  C5_6 
REMARK    5  A    between atoms: C5_6  and  C6_7 
REMARK    6  A    between atoms: C6_7  and  C8_9 
REMARK    7  A    between atoms: C30_32  and  O3_33 
ROOT
HETATM    1  C8  UNL     1      -5.135   7.214  15.189  1.00  0.00    -0.002 C 
HETATM    2  C9  UNL     1      -5.495   8.578  14.523  1.00  0.00     0.007 C 
HETATM    3  C10 UNL     1      -4.298   9.000  13.650  1.00  0.00     0.015 C 
HETATM    4  C11 UNL     1      -3.157   8.056  14.070  1.00  0.00    -0.013 C 
HETATM    5  C12 UNL     1      -2.534   8.684  15.360  1.00  0.00     0.021 C 
HETATM    6  C13 UNL     1      -1.998   7.852  13.099  1.00  0.00    -0.070 C 
HETATM    7  C14 UNL     1      -1.572   8.828  12.278  1.00  0.00    -0.022 C 
HETATM    8  C15 UNL     1      -0.364   8.730  11.399  1.00  0.00     0.034 C 
HETATM    9  C16 UNL     1       0.247   7.315  11.284  1.00  0.00     0.013 C 
HETATM   10  C17 UNL     1       1.632   7.308  10.535  1.00  0.00     0.018 C 
HETATM   11  C18 UNL     1       2.532   8.526  10.827  1.00  0.00     0.023 C 
HETATM   12  C19 UNL     1       1.391   7.278   9.011  1.00  0.00     0.023 C 
HETATM   13  C20 UNL     1       2.400   6.030  10.884  1.00  0.00     0.135 C 
HETATM   14  O2  UNL     1       3.626   5.949  10.815  1.00  0.00    -0.297 OA
HETATM   15  C21 UNL     1       1.572   4.826  11.237  1.00  0.00     0.080 C 
HETATM   16  C22 UNL     1       0.729   5.081  12.477  1.00  0.00     0.017 C 
HETATM   17  C23 UNL     1       0.214   6.545  12.659  1.00  0.00    -0.031 C 
HETATM   18  C24 UNL     1       1.104   7.241  13.718  1.00  0.00     0.016 C 
HETATM   19  C25 UNL     1      -1.296   6.494  13.138  1.00  0.00     0.024 C 
HETATM   20  C26 UNL     1      -1.524   5.758  14.481  1.00  0.00     0.010 C 
HETATM   21  C27 UNL     1      -2.999   5.677  14.947  1.00  0.00     0.011 C 
HETATM   22  C28 UNL     1      -3.944   6.714  14.302  1.00  0.00    -0.029 C 
HETATM   23  C29 UNL     1      -4.541   6.107  12.991  1.00  0.00     0.016 C 
ENDROOT
BRANCH   1  24
HETATM   24  C6  UNL     1      -6.396   6.317  15.410  1.00  0.00    -0.011 C 
HETATM   25  C7  UNL     1      -7.141   6.681  16.697  1.00  0.00     0.010 C 
BRANCH  24  26
HETATM   26  C5  UNL     1      -7.328   6.414  14.162  1.00  0.00     0.040 C 
BRANCH  26  27
HETATM   27  C4  UNL     1      -7.844   5.073  13.606  1.00  0.00     0.141 C 
BRANCH  27  28
HETATM   28  C3  UNL     1      -6.942   4.534  12.520  1.00  0.00     0.009 C 
HETATM   29  C2  UNL     1      -6.763   3.235  12.190  1.00  0.00    -0.062 C 
HETATM   30  C1  UNL     1      -7.421   2.085  12.906  1.00  0.00     0.045 C 
BRANCH  29  31
HETATM   31  C30 UNL     1      -5.860   2.839  11.052  1.00  0.00     0.198 C 
BRANCH  31  32
HETATM   32  O3  UNL     1      -5.936   1.432  10.890  1.00  0.00    -0.397 OA
HETATM   33  H48 UNL     1      -5.331   1.201  10.166  1.00  0.00     0.209 HD
ENDBRANCH  31  32
ENDBRANCH  29  31
ENDBRANCH  27  28
BRANCH  27  34
HETATM   34  O1  UNL     1      -9.143   5.272  13.056  1.00  0.00    -0.392 OA
HETATM   35  H6  UNL     1      -9.041   5.402  12.097  1.00  0.00     0.210 HD
ENDBRANCH  27  34
ENDBRANCH  26  27
ENDBRANCH  24  26
ENDBRANCH   1  24
TORSDOF 7
ENDMDL
