MODEL 1
REMARK minimizedAffinity -9.82737923
REMARK  8 active torsions:
REMARK  status: ('A' for Active; 'I' for Inactive)
REMARK    1  A    between atoms: C2_2  and  C3_3 
REMARK    2  A    between atoms: C2_2  and  C9_11 
REMARK    3  A    between atoms: C3_3  and  C4_4 
REMARK    4  A    between atoms: C4_4  and  C5_5 
REMARK    5  A    between atoms: C6_6  and  C7_7 
REMARK    6  A    between atoms: C6_6  and  C8_9 
REMARK    7  A    between atoms: C7_7  and  O1_8 
REMARK    8  A    between atoms: C8_9  and  O2_10 
ROOT
HETATM    1  C9  UNL     1      -0.456  50.572 -21.702  1.00  0.00    -0.002 C 
HETATM    2  C10 UNL     1      -0.736  50.296 -20.199  1.00  0.00     0.007 C 
HETATM    3  C11 UNL     1      -2.060  49.518 -20.109  1.00  0.00     0.015 C 
HETATM    4  C12 UNL     1      -2.358  49.057 -21.548  1.00  0.00    -0.005 C 
HETATM    5  C13 UNL     1      -1.544  47.748 -21.784  1.00  0.00     0.021 C 
HETATM    6  C14 UNL     1      -3.781  48.709 -21.970  1.00  0.00    -0.000 C 
HETATM    7  C15 UNL     1      -4.195  48.885 -23.253  1.00  0.00    -0.060 C 
HETATM    8  C16 UNL     1      -3.253  49.485 -24.304  1.00  0.00     0.036 C 
HETATM    9  C17 UNL     1      -1.857  49.949 -23.839  1.00  0.00     0.015 C 
HETATM   10  C18 UNL     1      -1.851  50.321 -22.353  1.00  0.00    -0.028 C 
HETATM   11  C19 UNL     1      -2.749  51.582 -22.153  1.00  0.00     0.016 C 
HETATM   12  C20 UNL     1      -5.640  48.560 -23.721  1.00  0.00    -0.014 C 
HETATM   13  C21 UNL     1      -6.425  49.887 -23.593  1.00  0.00     0.020 C 
HETATM   14  C22 UNL     1      -5.678  48.078 -25.193  1.00  0.00     0.021 C 
HETATM   15  C23 UNL     1      -7.058  47.634 -25.651  1.00  0.00     0.080 C 
HETATM   16  C24 UNL     1      -7.588  46.528 -24.776  1.00  0.00     0.135 C 
HETATM   17  O3  UNL     1      -8.115  45.540 -25.291  1.00  0.00    -0.297 OA
HETATM   18  C25 UNL     1      -7.555  46.741 -23.253  1.00  0.00     0.018 C 
HETATM   19  C26 UNL     1      -8.806  47.538 -22.859  1.00  0.00     0.023 C 
HETATM   20  C27 UNL     1      -7.678  45.345 -22.588  1.00  0.00     0.023 C 
HETATM   21  C28 UNL     1      -6.188  47.390 -22.834  1.00  0.00     0.020 C 
HETATM   22  C29 UNL     1      -6.123  47.780 -21.354  1.00  0.00     0.090 C 
HETATM   23  C30 UNL     1      -4.711  48.128 -20.947  1.00  0.00     0.157 C 
HETATM   24  O4  UNL     1      -4.353  47.952 -19.784  1.00  0.00    -0.293 OA
ENDROOT
BRANCH   1  25
HETATM   25  C2  UNL     1       0.264  51.934 -21.920  1.00  0.00    -0.014 C 
HETATM   26  C1  UNL     1       0.152  52.865 -20.709  1.00  0.00     0.010 C 
BRANCH  25  27
HETATM   27  C3  UNL     1      -0.214  52.675 -23.198  1.00  0.00     0.008 C 
BRANCH  27  28
HETATM   28  C4  UNL     1       0.880  52.988 -24.223  1.00  0.00     0.028 C 
BRANCH  28  29
HETATM   29  C5  UNL     1       0.435  52.602 -25.608  1.00  0.00    -0.020 C 
HETATM   30  C6  UNL     1       1.096  51.855 -26.519  1.00  0.00    -0.037 C 
BRANCH  30  31
HETATM   31  C7  UNL     1       0.524  51.529 -27.883  1.00  0.00     0.200 C 
BRANCH  31  32
HETATM   32  O1  UNL     1      -0.483  52.453 -28.279  1.00  0.00    -0.397 OA
HETATM   33  H12 UNL     1      -0.027  53.306 -28.382  1.00  0.00     0.209 HD
ENDBRANCH  31  32
ENDBRANCH  30  31
BRANCH  30  34
HETATM   34  C8  UNL     1       2.454  51.246 -26.292  1.00  0.00     0.200 C 
BRANCH  34  35
HETATM   35  O2  UNL     1       3.285  51.562 -27.402  1.00  0.00    -0.397 OA
HETATM   36  H15 UNL     1       4.171  51.222 -27.194  1.00  0.00     0.209 HD
ENDBRANCH  34  35
ENDBRANCH  30  34
ENDBRANCH  28  29
ENDBRANCH  27  28
ENDBRANCH  25  27
ENDBRANCH   1  25
TORSDOF 8
ENDMDL
