MODEL 1
REMARK minimizedAffinity -9.58683014
REMARK CNNscore 0.349987626
REMARK CNNaffinity 7.40018415
REMARK  15 active torsions:
REMARK  status: ('A' for Active; 'I' for Inactive)
REMARK    1  A    between atoms: C2_2  and  C3_3 
REMARK    2  A    between atoms: C2_2  and  C37_47 
REMARK    3  A    between atoms: C3_3  and  C4_4 
REMARK    4  A    between atoms: C4_4  and  C5_5 
REMARK    5  A    between atoms: C5_5  and  C6_6 
REMARK    6  A    between atoms: C5_5  and  C13_20 
REMARK    7  A    between atoms: C6_6  and  O2_8 
REMARK    8  A    between atoms: O2_8  and  C7_9 
REMARK    9  A    between atoms: C8_11  and  C9_12 
REMARK   10  A    between atoms: C9_12  and  O4_13 
REMARK   11  A    between atoms: C10_14  and  O5_15 
REMARK   12  A    between atoms: C11_16  and  O6_17 
REMARK   13  A    between atoms: C12_18  and  O7_19 
REMARK   14  A    between atoms: C14_21  and  O8_22 
REMARK   15  A    between atoms: O8_22  and  C15_23 
ROOT
HETATM    1  C13 UNL     1       0.793   7.906  13.478  1.00  0.00     0.038 C 
HETATM    2  C14 UNL     1       0.927   8.887  14.683  1.00  0.00     0.138 C 
HETATM    3  C17 UNL     1      -0.463   8.984  15.340  1.00  0.00     0.047 C 
HETATM    4  C18 UNL     1      -1.236   7.755  14.814  1.00  0.00    -0.010 C 
HETATM    5  C19 UNL     1      -0.826   6.532  15.693  1.00  0.00     0.021 C 
HETATM    6  C20 UNL     1      -2.761   7.762  14.852  1.00  0.00    -0.068 C 
HETATM    7  C21 UNL     1      -3.465   7.011  13.965  1.00  0.00    -0.068 C 
HETATM    8  C22 UNL     1      -2.751   6.193  12.877  1.00  0.00     0.036 C 
HETATM    9  C23 UNL     1      -1.219   6.363  12.742  1.00  0.00     0.015 C 
HETATM   10  C24 UNL     1      -0.745   7.710  13.309  1.00  0.00    -0.026 C 
HETATM   11  C25 UNL     1      -1.343   8.840  12.431  1.00  0.00     0.016 C 
HETATM   12  C26 UNL     1      -5.017   6.957  13.973  1.00  0.00    -0.015 C 
HETATM   13  C27 UNL     1      -5.505   7.833  12.790  1.00  0.00     0.020 C 
HETATM   14  C28 UNL     1      -5.509   5.495  13.762  1.00  0.00     0.021 C 
HETATM   15  C29 UNL     1      -6.926   5.192  14.248  1.00  0.00     0.080 C 
HETATM   16  C30 UNL     1      -7.753   6.425  14.525  1.00  0.00     0.135 C 
HETATM   17  O10 UNL     1      -8.899   6.513  14.083  1.00  0.00    -0.297 OA
HETATM   18  C31 UNL     1      -7.148   7.486  15.451  1.00  0.00     0.018 C 
HETATM   19  C32 UNL     1      -7.761   8.862  15.119  1.00  0.00     0.023 C 
HETATM   20  C33 UNL     1      -7.591   7.122  16.886  1.00  0.00     0.023 C 
HETATM   21  C34 UNL     1      -5.583   7.440  15.357  1.00  0.00     0.013 C 
HETATM   22  C35 UNL     1      -4.915   8.750  15.799  1.00  0.00     0.011 C 
HETATM   23  C36 UNL     1      -3.409   8.577  15.947  1.00  0.00     0.036 C 
ENDROOT
BRANCH   1  24
HETATM   24  C5  UNL     1       1.790   8.232  12.323  1.00  0.00     0.093 C 
BRANCH  24  25
HETATM   25  C4  UNL     1       1.117   8.323  10.926  1.00  0.00     0.019 C 
BRANCH  25  26
HETATM   26  C3  UNL     1       0.971   7.022  10.118  1.00  0.00     0.034 C 
BRANCH  26  27
HETATM   27  C2  UNL     1       2.054   6.883   9.051  1.00  0.00    -0.086 C 
HETATM   28  C1  UNL     1       3.015   5.952   9.207  1.00  0.00     0.014 C 
BRANCH  27  29
HETATM   29  C37 UNL     1       1.977   7.822   7.847  1.00  0.00     0.005 C 
HETATM   30  C38 UNL     1       1.898   7.121   6.486  1.00  0.00     0.014 C 
HETATM   31  C39 UNL     1       3.145   8.810   7.841  1.00  0.00     0.014 C 
ENDBRANCH  27  29
ENDBRANCH  26  27
ENDBRANCH  25  26
ENDBRANCH  24  25
BRANCH  24  32
HETATM   32  C6  UNL     1       2.939   9.244  12.444  1.00  0.00     0.266 C 
HETATM   33  O1  UNL     1       2.725  10.421  12.721  1.00  0.00    -0.265 OA
BRANCH  32  34
HETATM   34  O2  UNL     1       4.173   8.743  12.207  1.00  0.00    -0.287 OA
BRANCH  34  35
HETATM   35  C7  UNL     1       4.993   9.526  11.313  1.00  0.00     0.301 C 
HETATM   36  O3  UNL     1       5.785   8.717  10.435  1.00  0.00    -0.348 OA
HETATM   37  C8  UNL     1       6.735   7.865  11.084  1.00  0.00     0.179 C 
HETATM   38  C10 UNL     1       7.107   8.292  12.513  1.00  0.00     0.180 C 
HETATM   39  C11 UNL     1       7.210   9.812  12.565  1.00  0.00     0.183 C 
HETATM   40  C12 UNL     1       5.904  10.489  12.115  1.00  0.00     0.205 C 
BRANCH  37  41
HETATM   41  C9  UNL     1       6.243   6.421  11.030  1.00  0.00     0.198 C 
BRANCH  41  42
HETATM   42  O4  UNL     1       5.705   6.027  12.293  1.00  0.00    -0.398 OA
HETATM   43  H12 UNL     1       5.098   5.277  12.091  1.00  0.00     0.209 HD
ENDBRANCH  41  42
ENDBRANCH  37  41
BRANCH  38  44
HETATM   44  O5  UNL     1       8.358   7.724  12.923  1.00  0.00    -0.390 OA
HETATM   45  H14 UNL     1       8.275   6.761  12.743  1.00  0.00     0.210 HD
ENDBRANCH  38  44
BRANCH  39  46
HETATM   46  O6  UNL     1       7.549  10.207  13.901  1.00  0.00    -0.390 OA
HETATM   47  H16 UNL     1       8.343   9.677  14.119  1.00  0.00     0.210 HD
ENDBRANCH  39  46
BRANCH  40  48
HETATM   48  O7  UNL     1       6.239  11.629  11.297  1.00  0.00    -0.388 OA
HETATM   49  H18 UNL     1       6.654  11.292  10.482  1.00  0.00     0.210 HD
ENDBRANCH  40  48
ENDBRANCH  34  35
ENDBRANCH  32  34
ENDBRANCH  24  32
ENDBRANCH   1  24
BRANCH   2  50
HETATM   50  O8  UNL     1       1.868   8.302  15.605  1.00  0.00    -0.316 OA
BRANCH  50  51
HETATM   51  C15 UNL     1       2.428   9.098  16.548  1.00  0.00     0.255 C 
HETATM   52  C16 UNL     1       3.458   9.990  15.926  1.00  0.00     0.126 C 
HETATM   53  O9  UNL     1       2.114   9.147  17.726  1.00  0.00    -0.266 OA
ENDBRANCH  50  51
ENDBRANCH   2  50
TORSDOF 15
ENDMDL
