MODEL 1
REMARK minimizedAffinity -8.24027824
REMARK CNNscore 0.500790715
REMARK CNNaffinity 6.63534307
REMARK  11 active torsions:
REMARK  status: ('A' for Active; 'I' for Inactive)
REMARK    1  A    between atoms: C3_3  and  O1_4 
REMARK    2  A    between atoms: N1_14  and  O2_16 
REMARK    3  A    between atoms: O2_16  and  C13_17 
REMARK    4  A    between atoms: C13_17  and  C14_18 
REMARK       I    between atoms: C14_18  and  N2_20 
REMARK    5  A    between atoms: N2_20  and  C15_21 
REMARK    6  A    between atoms: C15_21  and  C16_22 
REMARK    7  A    between atoms: C15_21  and  C17_25 
REMARK    8  A    between atoms: C16_22  and  O5_24 
REMARK    9  A    between atoms: C17_25  and  O6_26 
REMARK   10  A    between atoms: C17_25  and  C18_27 
REMARK   11  A    between atoms: C22_31  and  N3_32 
ROOT
HETATM    1  C1  UNL     1      -3.110  48.467 -26.629  1.00  0.00     0.015 C 
HETATM    2  C2  UNL     1      -2.965  49.547 -26.123  1.00  0.00    -0.078 C 
HETATM    3  C3  UNL     1      -2.770  50.888 -25.530  1.00  0.00     0.128 C 
HETATM    4  C4  UNL     1      -1.332  51.021 -25.007  1.00  0.00     0.052 C 
HETATM    5  C5  UNL     1      -1.378  50.334 -23.648  1.00  0.00     0.010 C 
HETATM    6  C6  UNL     1      -2.730  50.761 -23.059  1.00  0.00     0.002 C 
HETATM    7  C7  UNL     1      -3.370  49.793 -22.037  1.00  0.00    -0.004 C 
HETATM    8  C8  UNL     1      -3.358  48.291 -22.385  1.00  0.00     0.010 C 
HETATM    9  C9  UNL     1      -4.658  47.511 -22.137  1.00  0.00     0.035 C 
HETATM   10  C10 UNL     1      -5.546  47.972 -21.006  1.00  0.00    -0.069 C 
HETATM   11  C11 UNL     1      -6.496  47.147 -20.532  1.00  0.00     0.030 C 
HETATM   12  C12 UNL     1      -7.466  47.574 -19.489  1.00  0.00     0.032 C 
HETATM   13  N1  UNL     1      -8.234  46.659 -18.967  1.00  0.00    -0.271 N 
ATOM     14  H1  UNL     1      -8.221  45.676 -19.238  1.00  0.00     0.194 HD
HETATM   15  C24 UNL     1      -7.498  49.036 -19.072  1.00  0.00     0.060 C 
HETATM   16  C25 UNL     1      -6.772  49.945 -20.061  1.00  0.00     0.020 C 
HETATM   17  C26 UNL     1      -5.390  49.397 -20.504  1.00  0.00    -0.016 C 
HETATM   18  C27 UNL     1      -4.454  49.374 -19.265  1.00  0.00     0.020 C 
HETATM   19  C28 UNL     1      -4.775  50.299 -21.631  1.00  0.00     0.002 C 
HETATM   20  C29 UNL     1      -5.701  50.500 -22.863  1.00  0.00     0.007 C 
HETATM   21  C30 UNL     1      -4.996  50.452 -24.224  1.00  0.00     0.014 C 
HETATM   22  C31 UNL     1      -3.639  51.180 -24.256  1.00  0.00     0.003 C 
HETATM   23  C32 UNL     1      -3.927  52.705 -24.144  1.00  0.00     0.020 C 
ENDROOT
BRANCH   3  24
HETATM   24  O1  UNL     1      -2.995  51.848 -26.554  1.00  0.00    -0.377 OA
HETATM   25  H2  UNL     1      -2.448  51.587 -27.314  1.00  0.00     0.211 HD
ENDBRANCH   3  24
BRANCH  13  26
HETATM   26  O2  UNL     1      -9.080  47.196 -17.986  1.00  0.00    -0.271 OA
BRANCH  26  27
HETATM   27  C13 UNL     1     -10.217  46.350 -17.849  1.00  0.00     0.303 C 
BRANCH  27  28
HETATM   28  C14 UNL     1     -11.436  46.930 -18.563  1.00  0.00     0.244 C 
HETATM   29  O3  UNL     1     -11.364  47.921 -19.286  1.00  0.00    -0.271 OA
HETATM   30  N2  UNL     1     -12.620  46.266 -18.333  1.00  0.00    -0.342 N 
HETATM   31  H16 UNL     1     -12.636  45.653 -17.522  1.00  0.00     0.163 HD
BRANCH  30  32
HETATM   32  C15 UNL     1     -13.911  46.843 -18.738  1.00  0.00     0.216 C 
BRANCH  32  33
HETATM   33  C16 UNL     1     -14.492  47.702 -17.605  1.00  0.00     0.166 C 
HETATM   34  O4  UNL     1     -15.194  48.693 -17.741  1.00  0.00    -0.648 OA
BRANCH  33  35
HETATM   35  O5  UNL     1     -14.185  47.279 -16.358  1.00  0.00    -0.775 OA
HETATM   36  H18 UNL     1     -14.582  47.952 -15.767  1.00  0.00     0.167 HD
ENDBRANCH  33  35
ENDBRANCH  32  33
BRANCH  32  37
HETATM   37  C17 UNL     1     -14.897  45.710 -19.117  1.00  0.00     0.184 C 
BRANCH  37  38
HETATM   38  O6  UNL     1     -15.342  45.061 -17.910  1.00  0.00    -0.388 OA
HETATM   39  H20 UNL     1     -16.227  45.409 -17.699  1.00  0.00     0.210 HD
ENDBRANCH  37  38
BRANCH  37  40
HETATM   40  C18 UNL     1     -16.091  46.016 -20.012  1.00  0.00    -0.025 A 
HETATM   41  C19 UNL     1     -17.309  46.388 -19.404  1.00  0.00     0.010 A 
HETATM   42  C20 UNL     1     -18.453  46.665 -20.159  1.00  0.00     0.003 A 
HETATM   43  C21 UNL     1     -18.413  46.562 -21.547  1.00  0.00     0.036 A 
HETATM   44  C22 UNL     1     -17.221  46.171 -22.167  1.00  0.00     0.103 A 
HETATM   45  C23 UNL     1     -16.070  45.892 -21.410  1.00  0.00     0.045 A 
BRANCH  44  46
HETATM   46  N3  UNL     1     -17.180  46.040 -23.629  1.00  0.00    -0.116 N 
HETATM   47  O7  UNL     1     -17.360  44.914 -24.112  1.00  0.00    -0.532 OA
HETATM   48  O8  UNL     1     -16.976  47.067 -24.294  1.00  0.00    -0.532 OA
ENDBRANCH  44  46
ENDBRANCH  37  40
ENDBRANCH  32  37
ENDBRANCH  30  32
ENDBRANCH  27  28
ENDBRANCH  26  27
ENDBRANCH  13  26
TORSDOF 11
ENDMDL
