MODEL 1
REMARK minimizedAffinity -10.3064327
REMARK CNNscore 0.634783149
REMARK CNNaffinity 8.39043522
REMARK  8 active torsions:
REMARK  status: ('A' for Active; 'I' for Inactive)
REMARK    1  A    between atoms: C3_4  and  O2_5 
REMARK    2  A    between atoms: O2_5  and  C4_6 
REMARK    3  A    between atoms: C7_10  and  O4_11 
REMARK    4  A    between atoms: O4_11  and  C8_12 
REMARK    5  A    between atoms: C11_16  and  O6_17 
REMARK    6  A    between atoms: O6_17  and  C12_18 
REMARK    7  A    between atoms: C26_33  and  C27_34 
REMARK    8  A    between atoms: C33_42  and  O10_43 
ROOT
HETATM    1  C12 UNL     1      -4.528   7.351  15.216  1.00  0.00     0.125 C 
HETATM    2  C13 UNL     1      -5.105   8.476  14.414  1.00  0.00     0.033 C 
HETATM    3  C14 UNL     1      -4.039   9.189  13.624  1.00  0.00     0.012 C 
HETATM    4  C15 UNL     1      -2.681   9.445  14.397  1.00  0.00    -0.036 C 
HETATM    5  C16 UNL     1      -2.218  10.900  14.146  1.00  0.00     0.016 C 
HETATM    6  C17 UNL     1      -2.893   9.154  15.918  1.00  0.00    -0.004 C 
HETATM    7  C18 UNL     1      -1.550   9.384  16.662  1.00  0.00     0.006 C 
HETATM    8  C19 UNL     1      -0.444   8.445  16.210  1.00  0.00     0.008 C 
HETATM    9  C20 UNL     1      -0.305   8.219  14.652  1.00  0.00     0.026 C 
HETATM   10  C21 UNL     1      -1.622   8.443  13.860  1.00  0.00     0.008 C 
HETATM   11  C22 UNL     1      -1.270   8.611  12.365  1.00  0.00     0.085 C 
HETATM   12  C23 UNL     1      -0.144   7.724  11.878  1.00  0.00     0.139 C 
HETATM   13  O7  UNL     1       0.579   8.036  10.923  1.00  0.00    -0.297 OA
HETATM   14  C24 UNL     1       0.048   6.424  12.650  1.00  0.00     0.055 C 
HETATM   15  C25 UNL     1       1.172   5.546  11.995  1.00  0.00     0.027 C 
HETATM   16  C26 UNL     1      -1.259   5.566  12.730  1.00  0.00     0.035 C 
HETATM   17  C31 UNL     1      -1.016   4.658  13.963  1.00  0.00     0.013 C 
HETATM   18  C32 UNL     1      -0.340   5.569  14.966  1.00  0.00     0.040 C 
HETATM   19  C33 UNL     1       0.303   6.790  14.185  1.00  0.00     0.077 C 
HETATM   20  C34 UNL     1      -3.432   7.746  16.173  1.00  0.00     0.037 C 
ENDROOT
BRANCH   1  21
HETATM   21  O6  UNL     1      -5.003   6.143  15.379  1.00  0.00    -0.355 OA
BRANCH  21  22
HETATM   22  C11 UNL     1      -6.230   5.810  15.146  1.00  0.00     0.274 C 
HETATM   23  C10 UNL     1      -7.328   6.345  16.017  1.00  0.00     0.147 C 
HETATM   24  C9  UNL     1      -8.192   7.184  15.031  1.00  0.00     0.190 C 
HETATM   25  C8  UNL     1      -8.491   6.514  13.902  1.00  0.00     0.150 C 
HETATM   26  O5  UNL     1      -8.486   8.325  15.446  1.00  0.00    -0.290 OA
HETATM   27  C35 UNL     1      -7.814   5.227  13.683  1.00  0.00     0.100 C 
HETATM   28  O11 UNL     1      -6.433   5.222  14.035  1.00  0.00    -0.318 OA
HETATM   29  C36 UNL     1      -8.298   4.245  12.930  1.00  0.00     0.054 C 
BRANCH  25  30
HETATM   30  O4  UNL     1      -9.335   7.019  12.876  1.00  0.00    -0.313 OA
BRANCH  30  31
HETATM   31  C7  UNL     1     -10.613   7.229  13.291  1.00  0.00     0.280 C 
HETATM   32  C6  UNL     1     -11.027   8.694  13.158  1.00  0.00     0.147 C 
HETATM   33  C5  UNL     1     -12.424   9.037  13.690  1.00  0.00     0.190 C 
HETATM   34  C4  UNL     1     -13.185   8.004  14.112  1.00  0.00     0.150 C 
HETATM   35  O3  UNL     1     -12.662  10.284  13.681  1.00  0.00    -0.290 OA
HETATM   36  C37 UNL     1     -12.677   6.632  14.112  1.00  0.00     0.100 C 
HETATM   37  O12 UNL     1     -11.327   6.314  13.877  1.00  0.00    -0.318 OA
HETATM   38  C38 UNL     1     -13.386   5.546  14.462  1.00  0.00     0.054 C 
BRANCH  34  39
HETATM   39  O2  UNL     1     -14.545   8.134  14.552  1.00  0.00    -0.313 OA
BRANCH  39  40
HETATM   40  C3  UNL     1     -15.439   7.855  13.570  1.00  0.00     0.280 C 
HETATM   41  O1  UNL     1     -16.200   6.796  13.614  1.00  0.00    -0.316 OA
HETATM   42  C2  UNL     1     -17.336   6.807  12.796  1.00  0.00     0.116 C 
HETATM   43  C1  UNL     1     -18.126   5.749  13.025  1.00  0.00     0.055 C 
HETATM   44  C41 UNL     1     -17.702   7.858  11.827  1.00  0.00     0.249 C 
HETATM   45  C40 UNL     1     -16.531   8.736  11.493  1.00  0.00     0.206 C 
HETATM   46  O14 UNL     1     -18.773   8.015  11.270  1.00  0.00    -0.281 OA
HETATM   47  C39 UNL     1     -15.359   8.735  12.396  1.00  0.00     0.149 C 
HETATM   48  O13 UNL     1     -16.498   9.333  10.433  1.00  0.00    -0.289 OA
ENDBRANCH  39  40
ENDBRANCH  34  39
ENDBRANCH  30  31
ENDBRANCH  25  30
ENDBRANCH  21  22
ENDBRANCH   1  21
BRANCH  19  49
HETATM   49  O10 UNL     1       1.576   6.798  14.501  1.00  0.00    -0.388 OA
ATOM     50  H10 UNL     1       1.931   5.961  14.228  1.00  0.00     0.210 HD
ENDBRANCH  19  49
BRANCH  16  51
HETATM   51  C27 UNL     1      -1.891   4.797  11.592  1.00  0.00    -0.045 C 
HETATM   52  C28 UNL     1      -1.287   3.833  11.005  1.00  0.00     0.087 C 
HETATM   53  C29 UNL     1      -1.916   2.714  10.732  1.00  0.00     0.283 C 
HETATM   54  O8  UNL     1      -1.240   1.771  10.255  1.00  0.00    -0.260 OA
HETATM   55  O9  UNL     1      -3.281   2.982  10.908  1.00  0.00    -0.314 OA
HETATM   56  C30 UNL     1      -3.330   4.339  11.584  1.00  0.00     0.213 C 
ENDBRANCH  16  51
TORSDOF 8
ENDMDL
