MODEL 1
REMARK minimizedAffinity -9.20452595
REMARK CNNscore 0.426241189
REMARK CNNaffinity 6.87762642
REMARK  13 active torsions:
REMARK  status: ('A' for Active; 'I' for Inactive)
REMARK    1  A    between atoms: C19_21  and  O3_22 
REMARK    2  A    between atoms: C19_21  and  C20_23 
REMARK    3  A    between atoms: C20_23  and  C21_25 
REMARK    4  A    between atoms: C21_25  and  O5_26 
REMARK    5  A    between atoms: O5_26  and  C22_27 
REMARK    6  A    between atoms: C22_27  and  C23_29 
REMARK    7  A    between atoms: C23_29  and  C24_30 
REMARK    8  A    between atoms: C24_30  and  C25_31 
REMARK       I    between atoms: C25_31  and  N1_33 
REMARK    9  A    between atoms: N1_33  and  C26_34 
REMARK   10  A    between atoms: C26_34  and  C27_35 
REMARK   11  A    between atoms: C26_34  and  C36_45 
REMARK   12  A    between atoms: C27_35  and  C28_36 
REMARK   13  A    between atoms: C36_45  and  O9_47 
ROOT
HETATM    1  C21 UNL     1      -1.076  50.449 -17.306  1.00  0.00     0.260 C 
ENDROOT
BRANCH   1   2
HETATM    2  C20 UNL     1      -2.205  49.532 -17.772  1.00  0.00     0.185 C 
HETATM    3  O4  UNL     1      -3.104  49.191 -16.997  1.00  0.00    -0.292 OA
BRANCH   2   4
HETATM    4  C19 UNL     1      -2.161  49.047 -19.244  1.00  0.00     0.128 C 
HETATM    5  C14 UNL     1      -2.021  50.175 -20.318  1.00  0.00     0.005 C 
HETATM    6  C13 UNL     1      -0.602  50.687 -20.619  1.00  0.00     0.091 C 
HETATM    7  C15 UNL     1      -2.902  51.403 -19.947  1.00  0.00     0.019 C 
HETATM    8  C16 UNL     1      -2.536  49.409 -21.577  1.00  0.00     0.002 C 
HETATM    9  C12 UNL     1      -0.614  51.511 -21.906  1.00  0.00     0.133 C 
HETATM   10  C11 UNL     1      -1.158  50.788 -23.147  1.00  0.00     0.072 C 
HETATM   11  O2  UNL     1      -0.170  52.655 -21.924  1.00  0.00    -0.297 OA
HETATM   12  C2  UNL     1      -1.076  51.539 -24.511  1.00  0.00    -0.009 C 
HETATM   13  C10 UNL     1      -2.606  50.303 -22.828  1.00  0.00     0.003 C 
HETATM   14  C1  UNL     1      -2.014  52.768 -24.543  1.00  0.00     0.021 C 
HETATM   15  C3  UNL     1       0.380  51.974 -24.832  1.00  0.00     0.022 C 
HETATM   16  C7  UNL     1      -1.501  50.549 -25.609  1.00  0.00    -0.067 C 
HETATM   17  C4  UNL     1       0.542  52.552 -26.239  1.00  0.00     0.084 C 
HETATM   18  C5  UNL     1      -0.102  51.687 -27.296  1.00  0.00     0.149 C 
HETATM   19  O1  UNL     1       0.143  51.829 -28.492  1.00  0.00    -0.293 OA
HETATM   20  C6  UNL     1      -1.065  50.642 -26.877  1.00  0.00     0.053 C 
HETATM   21  C8  UNL     1      -2.356  49.365 -25.209  1.00  0.00     0.035 C 
HETATM   22  C9  UNL     1      -3.293  49.649 -24.041  1.00  0.00     0.010 C 
HETATM   23  C17 UNL     1      -3.815  48.744 -21.082  1.00  0.00     0.009 C 
HETATM   24  C18 UNL     1      -3.516  48.373 -19.617  1.00  0.00     0.047 C 
BRANCH   4  25
HETATM   25  O3  UNL     1      -1.171  48.030 -19.433  1.00  0.00    -0.381 OA
HETATM   26  H25 UNL     1      -0.282  48.420 -19.409  1.00  0.00     0.211 HD
ENDBRANCH   4  25
ENDBRANCH   2   4
ENDBRANCH   1   2
BRANCH   1  27
HETATM   27  O5  UNL     1      -0.306  49.863 -16.255  1.00  0.00    -0.314 OA
BRANCH  27  28
HETATM   28  C22 UNL     1       0.832  50.549 -15.965  1.00  0.00     0.259 C 
HETATM   29  O6  UNL     1       1.330  51.390 -16.704  1.00  0.00    -0.265 OA
BRANCH  28  30
HETATM   30  C23 UNL     1       1.370  50.195 -14.605  1.00  0.00     0.120 C 
BRANCH  30  31
HETATM   31  C24 UNL     1       2.290  51.268 -14.038  1.00  0.00     0.112 C 
BRANCH  31  32
HETATM   32  C25 UNL     1       1.932  51.609 -12.609  1.00  0.00     0.218 C 
HETATM   33  O7  UNL     1       1.576  50.779 -11.780  1.00  0.00    -0.274 OA
HETATM   34  N1  UNL     1       2.051  52.951 -12.337  1.00  0.00    -0.346 N 
HETATM   35  H32 UNL     1       2.031  53.593 -13.117  1.00  0.00     0.163 HD
BRANCH  34  36
HETATM   36  C26 UNL     1       1.708  53.494 -11.017  1.00  0.00     0.186 C 
BRANCH  36  37
HETATM   37  C27 UNL     1       2.373  54.859 -10.782  1.00  0.00     0.077 C 
BRANCH  37  38
HETATM   38  C28 UNL     1       3.564  54.776  -9.874  1.00  0.00    -0.028 A 
HETATM   39  C29 UNL     1       4.484  53.745  -9.829  1.00  0.00     0.096 A 
HETATM   40  N2  UNL     1       5.439  54.062  -8.903  1.00  0.00    -0.365 N 
HETATM   41  C30 UNL     1       5.161  55.280  -8.327  1.00  0.00     0.042 A 
HETATM   42  H37 UNL     1       6.243  53.493  -8.676  1.00  0.00     0.165 HD
HETATM   43  C31 UNL     1       5.861  55.994  -7.346  1.00  0.00     0.030 A 
HETATM   44  C35 UNL     1       3.982  55.748  -8.907  1.00  0.00    -0.002 A 
HETATM   45  C32 UNL     1       5.338  57.226  -6.945  1.00  0.00     0.002 A 
HETATM   46  C33 UNL     1       4.161  57.721  -7.501  1.00  0.00     0.001 A 
HETATM   47  C34 UNL     1       3.474  56.994  -8.481  1.00  0.00     0.014 A 
ENDBRANCH  37  38
ENDBRANCH  36  37
BRANCH  36  48
HETATM   48  C36 UNL     1       0.196  53.671 -10.864  1.00  0.00     0.163 C 
HETATM   49  O8  UNL     1      -0.376  54.145  -9.895  1.00  0.00    -0.648 OA
BRANCH  48  50
HETATM   50  O9  UNL     1      -0.523  53.319 -11.955  1.00  0.00    -0.775 OA
HETATM   51  H42 UNL     1      -1.451  53.463 -11.674  1.00  0.00     0.167 HD
ENDBRANCH  48  50
ENDBRANCH  36  48
ENDBRANCH  34  36
ENDBRANCH  31  32
ENDBRANCH  30  31
ENDBRANCH  28  30
ENDBRANCH  27  28
ENDBRANCH   1  27
TORSDOF 13
ENDMDL
