MODEL 1
REMARK minimizedAffinity -7.30047846
REMARK CNNscore 0.700527728
REMARK CNNaffinity 6.46964407
REMARK  15 active torsions:
REMARK  status: ('A' for Active; 'I' for Inactive)
REMARK    1  A    between atoms: C19_20  and  O2_21 
REMARK    2  A    between atoms: C19_20  and  C20_22 
REMARK    3  A    between atoms: C20_22  and  C21_24 
REMARK    4  A    between atoms: C21_24  and  O4_25 
REMARK    5  A    between atoms: O4_25  and  C22_26 
REMARK    6  A    between atoms: C22_26  and  C23_28 
REMARK    7  A    between atoms: C23_28  and  C24_29 
REMARK    8  A    between atoms: C24_29  and  C25_30 
REMARK       I    between atoms: C25_30  and  N1_32 
REMARK    9  A    between atoms: N1_32  and  C26_33 
REMARK   10  A    between atoms: C26_33  and  C27_34 
REMARK   11  A    between atoms: C27_34  and  C28_35 
REMARK   12  A    between atoms: C28_35  and  C29_36 
REMARK   13  A    between atoms: C29_36  and  C30_37 
REMARK   14  A    between atoms: C30_37  and  C31_38 
REMARK   15  A    between atoms: C31_38  and  O8_40 
ROOT
HETATM    1  C1  UNL     1       1.814   6.554   8.336  1.00  0.00     0.020 C 
HETATM    2  C2  UNL     1       1.793   7.075   9.801  1.00  0.00    -0.016 C 
HETATM    3  C3  UNL     1       2.545   8.438   9.824  1.00  0.00     0.022 C 
HETATM    4  C4  UNL     1       4.048   8.334   9.593  1.00  0.00     0.084 C 
HETATM    5  C5  UNL     1       4.661   7.376  10.578  1.00  0.00     0.149 C 
HETATM    6  O1  UNL     1       5.821   7.487  10.966  1.00  0.00    -0.293 OA
HETATM    7  C6  UNL     1       3.853   6.216  11.015  1.00  0.00     0.053 C 
HETATM    8  C7  UNL     1       2.571   6.048  10.635  1.00  0.00    -0.068 C 
HETATM    9  C8  UNL     1       1.890   4.763  11.037  1.00  0.00     0.035 C 
HETATM   10  C9  UNL     1       0.372   4.790  10.939  1.00  0.00     0.010 C 
HETATM   11  C10 UNL     1      -0.227   6.156  11.265  1.00  0.00    -0.004 C 
HETATM   12  C11 UNL     1       0.258   7.224  10.238  1.00  0.00     0.002 C 
HETATM   13  C12 UNL     1      -0.249   8.640  10.635  1.00  0.00     0.007 C 
HETATM   14  C13 UNL     1      -0.099   9.024  12.117  1.00  0.00     0.013 C 
HETATM   15  C14 UNL     1      -0.676   7.952  13.060  1.00  0.00    -0.002 C 
HETATM   16  C15 UNL     1      -2.218   7.880  12.902  1.00  0.00     0.019 C 
HETATM   17  C16 UNL     1       0.044   6.627  12.702  1.00  0.00     0.002 C 
HETATM   18  C17 UNL     1      -0.338   5.691  13.840  1.00  0.00     0.009 C 
HETATM   19  C18 UNL     1      -0.396   6.601  15.081  1.00  0.00     0.047 C 
HETATM   20  C19 UNL     1      -0.298   8.068  14.572  1.00  0.00     0.128 C 
ENDROOT
BRANCH  20  21
HETATM   21  O2  UNL     1       1.063   8.488  14.701  1.00  0.00    -0.381 OA
HETATM   22  H27 UNL     1       1.329   8.377  15.636  1.00  0.00     0.211 HD
ENDBRANCH  20  21
BRANCH  20  23
HETATM   23  C20 UNL     1      -1.179   9.033  15.398  1.00  0.00     0.185 C 
HETATM   24  O3  UNL     1      -2.074   8.628  16.145  1.00  0.00    -0.292 OA
BRANCH  23  25
HETATM   25  C21 UNL     1      -0.885  10.528  15.254  1.00  0.00     0.260 C 
BRANCH  25  26
HETATM   26  O4  UNL     1      -0.700  11.171  16.516  1.00  0.00    -0.314 OA
BRANCH  26  27
HETATM   27  C22 UNL     1       0.605  11.372  16.850  1.00  0.00     0.259 C 
HETATM   28  O5  UNL     1       1.358  12.162  16.297  1.00  0.00    -0.265 OA
BRANCH  27  29
HETATM   29  C23 UNL     1       1.011  10.449  17.963  1.00  0.00     0.120 C 
BRANCH  29  30
HETATM   30  C24 UNL     1       1.090  11.225  19.267  1.00  0.00     0.112 C 
BRANCH  30  31
HETATM   31  C25 UNL     1       2.028  10.559  20.249  1.00  0.00     0.217 C 
HETATM   32  O6  UNL     1       2.700   9.570  19.979  1.00  0.00    -0.274 OA
HETATM   33  N1  UNL     1       2.046  11.181  21.482  1.00  0.00    -0.361 N 
HETATM   34  H34 UNL     1       1.682  12.123  21.534  1.00  0.00     0.162 HD
BRANCH  33  35
HETATM   35  C26 UNL     1       2.974  10.749  22.508  1.00  0.00     0.122 C 
BRANCH  35  36
HETATM   36  C27 UNL     1       3.979  11.847  22.841  1.00  0.00     0.020 C 
BRANCH  36  37
HETATM   37  C28 UNL     1       5.433  11.441  22.581  1.00  0.00     0.002 C 
BRANCH  37  38
HETATM   38  C29 UNL     1       6.366  12.565  22.121  1.00  0.00     0.010 C 
BRANCH  38  39
HETATM   39  C30 UNL     1       7.317  13.050  23.214  1.00  0.00     0.110 C 
BRANCH  39  40
HETATM   40  C31 UNL     1       8.698  12.477  23.044  1.00  0.00     0.139 C 
HETATM   41  O7  UNL     1       9.709  13.060  22.697  1.00  0.00    -0.650 OA
BRANCH  40  42
HETATM   42  O8  UNL     1       8.732  11.162  23.336  1.00  0.00    -0.776 OA
HETATM   43  H45 UNL     1       9.671  10.914  23.193  1.00  0.00     0.167 HD
ENDBRANCH  40  42
ENDBRANCH  39  40
ENDBRANCH  38  39
ENDBRANCH  37  38
ENDBRANCH  36  37
ENDBRANCH  35  36
ENDBRANCH  33  35
ENDBRANCH  30  31
ENDBRANCH  29  30
ENDBRANCH  27  29
ENDBRANCH  26  27
ENDBRANCH  25  26
ENDBRANCH  23  25
ENDBRANCH  20  23
TORSDOF 15
ENDMDL
