MODEL 1
REMARK minimizedAffinity -9.29509735
REMARK  4 active torsions:
REMARK  status: ('A' for Active; 'I' for Inactive)
REMARK    1  A    between atoms: C2_2  and  N1_3 
REMARK       I    between atoms: N1_3  and  C3_4 
REMARK       I    between atoms: C3_4  and  N2_6 
REMARK    2  A    between atoms: C6_9  and  N3_10 
REMARK    3  A    between atoms: N3_10  and  C7_11 
REMARK    4  A    between atoms: C10_17  and  C11_18 
ROOT
HETATM    1  C7  UNL     1      -2.447   6.684  13.422  1.00  0.00     0.158 A 
HETATM    2  N4  UNL     1      -2.580   7.993  13.677  1.00  0.00    -0.341 N 
ATOM      3  H4  UNL     1      -1.780   8.625  13.650  1.00  0.00     0.167 HD
HETATM    4  C8  UNL     1      -3.821   8.435  13.970  1.00  0.00     0.116 A 
HETATM    5  C9  UNL     1      -4.935   7.631  14.021  1.00  0.00     0.077 A 
HETATM    6 CL1  UNL     1      -6.470   8.317  14.369  1.00  0.00    -0.080 Cl
HETATM    7  C10 UNL     1      -4.695   6.299  13.741  1.00  0.00     0.070 A 
HETATM    8  N6  UNL     1      -3.465   5.820  13.431  1.00  0.00    -0.331 N 
ATOM      9  H6  UNL     1      -3.322   4.834  13.212  1.00  0.00     0.168 HD
ENDROOT
BRANCH   1  10
HETATM   10  N3  UNL     1      -1.208   6.139  13.121  1.00  0.00    -0.259 NA
HETATM   11  H12 UNL     1      -1.384   5.143  13.018  1.00  0.00     0.131 HD
BRANCH  10  12
HETATM   12  C6  UNL     1      -0.472   6.774  12.027  1.00  0.00     0.066 C 
HETATM   13  C5  UNL     1       0.712   7.589  12.573  1.00  0.00     0.040 C 
HETATM   14  C4  UNL     1       2.022   6.810  12.537  1.00  0.00     0.129 C 
HETATM   15  N2  UNL     1       2.346   6.346  11.185  1.00  0.00    -0.334 N 
HETATM   16  C3  UNL     1       3.627   6.239  10.668  1.00  0.00     0.318 C 
HETATM   17  C20 UNL     1       1.227   6.109  10.279  1.00  0.00     0.129 C 
HETATM   18  N1  UNL     1       4.631   6.335  11.598  1.00  0.00    -0.343 N 
HETATM   19  O1  UNL     1       3.850   6.070   9.473  1.00  0.00    -0.247 OA
HETATM   20  H6  UNL     1       4.392   6.029  12.528  1.00  0.00     0.164 HD
HETATM   21  C19 UNL     1      -0.019   5.683  11.042  1.00  0.00     0.040 C 
BRANCH  18  22
HETATM   22  C2  UNL     1       6.021   6.197  11.214  1.00  0.00     0.120 C 
HETATM   23  C1  UNL     1       6.662   7.538  10.900  1.00  0.00     0.026 C 
ENDBRANCH  18  22
ENDBRANCH  10  12
ENDBRANCH   1  10
BRANCH   7  24
HETATM   24  C11 UNL     1      -5.740   5.287  13.732  1.00  0.00     0.020 A 
HETATM   25  C12 UNL     1      -6.825   5.293  14.588  1.00  0.00     0.103 A 
HETATM   26  N5  UNL     1      -7.587   4.188  14.315  1.00  0.00    -0.364 N 
HETATM   27  C13 UNL     1      -7.008   3.443  13.313  1.00  0.00     0.043 A 
HETATM   28  H15 UNL     1      -8.445   3.939  14.789  1.00  0.00     0.165 HD
HETATM   29  C14 UNL     1      -7.428   2.244  12.724  1.00  0.00     0.030 A 
HETATM   30  C18 UNL     1      -5.837   4.102  12.934  1.00  0.00     0.004 A 
HETATM   31  C15 UNL     1      -6.623   1.700  11.718  1.00  0.00     0.002 A 
HETATM   32  C16 UNL     1      -5.448   2.332  11.320  1.00  0.00     0.001 A 
HETATM   33  C17 UNL     1      -5.044   3.530  11.919  1.00  0.00     0.014 A 
ENDBRANCH   7  24
TORSDOF 4
ENDMDL
