MODEL 1
REMARK minimizedAffinity -7.22237635
REMARK CNNscore 0.909360111
REMARK CNNaffinity 7.48157549
REMARK  8 active torsions:
REMARK  status: ('A' for Active; 'I' for Inactive)
REMARK    1  A    between atoms: C2_2  and  C30_33 
REMARK    2  A    between atoms: C3_3  and  C4_4 
REMARK    3  A    between atoms: C4_4  and  C5_5 
REMARK    4  A    between atoms: C5_5  and  C6_6 
REMARK    5  A    between atoms: C6_6  and  C8_8 
REMARK    6  A    between atoms: C15_15  and  O1_16 
REMARK    7  A    between atoms: C23_24  and  O2_25 
REMARK    8  A    between atoms: C30_33  and  O4_34 
ROOT
HETATM    1  C8  UNL     1       4.542  54.902  -8.387  1.00  0.00    -0.002 C 
HETATM    2  C9  UNL     1       3.917  56.263  -8.007  1.00  0.00     0.007 C 
HETATM    3  C10 UNL     1       2.416  56.173  -8.365  1.00  0.00     0.015 C 
HETATM    4  C11 UNL     1       2.134  54.669  -8.576  1.00  0.00    -0.005 C 
HETATM    5  C12 UNL     1       1.911  54.046  -7.163  1.00  0.00     0.021 C 
HETATM    6  C13 UNL     1       0.939  54.184  -9.389  1.00  0.00     0.002 C 
HETATM    7  C14 UNL     1       0.990  53.012 -10.082  1.00  0.00    -0.032 C 
HETATM    8  C15 UNL     1       2.264  52.161 -10.102  1.00  0.00     0.149 C 
HETATM    9  C16 UNL     1       3.515  52.732  -9.393  1.00  0.00     0.047 C 
HETATM   10  C17 UNL     1       3.471  54.258  -9.312  1.00  0.00    -0.026 C 
HETATM   11  C18 UNL     1       3.557  54.832 -10.757  1.00  0.00     0.016 C 
HETATM   12  C19 UNL     1      -0.200  52.565 -10.983  1.00  0.00    -0.013 C 
HETATM   13  C20 UNL     1       0.046  53.303 -12.324  1.00  0.00     0.021 C 
HETATM   14  C21 UNL     1      -0.283  51.047 -11.246  1.00  0.00     0.017 C 
HETATM   15  C22 UNL     1      -1.463  50.610 -12.117  1.00  0.00     0.033 C 
HETATM   16  C23 UNL     1      -2.734  51.455 -11.988  1.00  0.00     0.126 C 
HETATM   17  C24 UNL     1      -2.859  52.257 -10.667  1.00  0.00    -0.017 C 
HETATM   18  C25 UNL     1      -4.049  53.239 -10.772  1.00  0.00     0.018 C 
HETATM   19  C26 UNL     1      -3.252  51.240  -9.555  1.00  0.00     0.018 C 
HETATM   20  C27 UNL     1      -1.509  52.966 -10.223  1.00  0.00     0.015 C 
HETATM   21  C28 UNL     1      -1.563  54.486 -10.063  1.00  0.00     0.090 C 
HETATM   22  C29 UNL     1      -0.310  55.020  -9.400  1.00  0.00     0.157 C 
HETATM   23  O3  UNL     1      -0.329  56.139  -8.886  1.00  0.00    -0.293 OA
ENDROOT
BRANCH   1  24
HETATM   24  C6  UNL     1       6.056  54.865  -8.739  1.00  0.00    -0.014 C 
HETATM   25  C7  UNL     1       6.484  53.412  -9.017  1.00  0.00     0.010 C 
BRANCH  24  26
HETATM   26  C5  UNL     1       7.112  55.597  -7.875  1.00  0.00     0.008 C 
BRANCH  26  27
HETATM   27  C4  UNL     1       7.042  55.586  -6.344  1.00  0.00     0.028 C 
BRANCH  27  28
HETATM   28  C3  UNL     1       8.368  55.577  -5.638  1.00  0.00    -0.022 C 
HETATM   29  C2  UNL     1       8.963  56.607  -5.003  1.00  0.00    -0.064 C 
HETATM   30  C1  UNL     1       8.403  58.002  -4.933  1.00  0.00     0.045 C 
BRANCH  29  31
HETATM   31  C30 UNL     1      10.295  56.426  -4.321  1.00  0.00     0.197 C 
BRANCH  31  32
HETATM   32  O4  UNL     1      11.328  56.582  -5.281  1.00  0.00    -0.397 OA
HETATM   33  H48 UNL     1      12.167  56.558  -4.792  1.00  0.00     0.209 HD
ENDBRANCH  31  32
ENDBRANCH  29  31
ENDBRANCH  27  28
ENDBRANCH  26  27
ENDBRANCH  24  26
ENDBRANCH   1  24
BRANCH   8  34
HETATM   34  O1  UNL     1       1.976  50.906  -9.493  1.00  0.00    -0.391 OA
HETATM   35  H22 UNL     1       2.760  50.343  -9.610  1.00  0.00     0.210 HD
ENDBRANCH   8  34
BRANCH  16  36
HETATM   36  O2  UNL     1      -2.814  52.318 -13.121  1.00  0.00    -0.395 OA
HETATM   37  H36 UNL     1      -3.748  52.557 -13.252  1.00  0.00     0.210 HD
ENDBRANCH  16  36
TORSDOF 8
ENDMDL
