MODEL 1
REMARK minimizedAffinity -6.94760466
REMARK CNNscore 0.633321762
REMARK CNNaffinity 6.26287889
REMARK  15 active torsions:
REMARK  status: ('A' for Active; 'I' for Inactive)
REMARK    1  A    between atoms: C19_20  and  O2_21 
REMARK    2  A    between atoms: C19_20  and  C20_22 
REMARK    3  A    between atoms: C20_22  and  C21_24 
REMARK    4  A    between atoms: C21_24  and  O4_25 
REMARK    5  A    between atoms: O4_25  and  C22_26 
REMARK    6  A    between atoms: C22_26  and  C23_28 
REMARK    7  A    between atoms: C23_28  and  C24_29 
REMARK    8  A    between atoms: C24_29  and  C25_30 
REMARK       I    between atoms: C25_30  and  N1_32 
REMARK    9  A    between atoms: N1_32  and  C26_33 
REMARK   10  A    between atoms: C26_33  and  C27_34 
REMARK   11  A    between atoms: C27_34  and  C28_35 
REMARK   12  A    between atoms: C28_35  and  C29_36 
REMARK   13  A    between atoms: C29_36  and  C30_37 
REMARK   14  A    between atoms: C30_37  and  C31_38 
REMARK   15  A    between atoms: C31_38  and  O8_40 
ROOT
HETATM    1  C1  UNL     1      -2.895  48.634 -24.665  1.00  0.00     0.020 C 
HETATM    2  C2  UNL     1      -3.148  49.586 -23.457  1.00  0.00    -0.016 C 
HETATM    3  C3  UNL     1      -3.148  51.019 -24.078  1.00  0.00     0.022 C 
HETATM    4  C4  UNL     1      -2.605  52.135 -23.198  1.00  0.00     0.084 C 
HETATM    5  C5  UNL     1      -1.308  51.736 -22.544  1.00  0.00     0.149 C 
HETATM    6  O1  UNL     1      -0.402  52.538 -22.333  1.00  0.00    -0.293 OA
HETATM    7  C6  UNL     1      -1.184  50.347 -22.046  1.00  0.00     0.053 C 
HETATM    8  C7  UNL     1      -2.041  49.384 -22.424  1.00  0.00    -0.068 C 
HETATM    9  C8  UNL     1      -1.991  48.018 -21.774  1.00  0.00     0.035 C 
HETATM   10  C9  UNL     1      -3.347  47.629 -21.165  1.00  0.00     0.010 C 
HETATM   11  C10 UNL     1      -4.512  47.798 -22.162  1.00  0.00    -0.004 C 
HETATM   12  C11 UNL     1      -4.523  49.225 -22.778  1.00  0.00     0.002 C 
HETATM   13  C12 UNL     1      -5.000  50.279 -21.749  1.00  0.00     0.007 C 
HETATM   14  C13 UNL     1      -5.838  49.755 -20.579  1.00  0.00     0.013 C 
HETATM   15  C14 UNL     1      -6.726  48.545 -20.905  1.00  0.00    -0.002 C 
HETATM   16  C15 UNL     1      -7.887  49.012 -21.820  1.00  0.00     0.019 C 
HETATM   17  C16 UNL     1      -5.927  47.429 -21.659  1.00  0.00     0.002 C 
HETATM   18  C17 UNL     1      -6.033  46.161 -20.802  1.00  0.00     0.009 C 
HETATM   19  C18 UNL     1      -7.346  46.344 -20.055  1.00  0.00     0.047 C 
HETATM   20  C19 UNL     1      -7.279  47.816 -19.626  1.00  0.00     0.128 C 
ENDROOT
BRANCH  20  21
HETATM   21  O2  UNL     1      -6.329  47.889 -18.554  1.00  0.00    -0.381 OA
HETATM   22  H27 UNL     1      -6.694  47.394 -17.791  1.00  0.00     0.211 HD
ENDBRANCH  20  21
BRANCH  20  23
HETATM   23  C20 UNL     1      -8.630  48.340 -19.105  1.00  0.00     0.185 C 
HETATM   24  O3  UNL     1      -8.725  49.364 -18.422  1.00  0.00    -0.292 OA
BRANCH  23  25
HETATM   25  C21 UNL     1      -9.871  47.534 -19.493  1.00  0.00     0.260 C 
BRANCH  25  26
HETATM   26  O4  UNL     1     -10.923  47.636 -18.534  1.00  0.00    -0.314 OA
BRANCH  26  27
HETATM   27  C22 UNL     1     -12.160  47.376 -19.043  1.00  0.00     0.259 C 
HETATM   28  O5  UNL     1     -12.482  47.510 -20.219  1.00  0.00    -0.265 OA
BRANCH  27  29
HETATM   29  C23 UNL     1     -13.093  46.928 -17.952  1.00  0.00     0.120 C 
BRANCH  29  30
HETATM   30  C24 UNL     1     -13.946  48.096 -17.483  1.00  0.00     0.112 C 
BRANCH  30  31
HETATM   31  C25 UNL     1     -15.296  48.094 -18.167  1.00  0.00     0.217 C 
HETATM   32  O6  UNL     1     -16.160  48.939 -17.958  1.00  0.00    -0.274 OA
HETATM   33  N1  UNL     1     -15.453  47.047 -19.054  1.00  0.00    -0.361 N 
HETATM   34  H34 UNL     1     -14.618  46.554 -19.346  1.00  0.00     0.162 HD
BRANCH  33  35
HETATM   35  C26 UNL     1     -16.605  47.013 -19.933  1.00  0.00     0.122 C 
BRANCH  35  36
HETATM   36  C27 UNL     1     -16.220  46.583 -21.344  1.00  0.00     0.020 C 
BRANCH  36  37
HETATM   37  C28 UNL     1     -17.186  45.556 -21.947  1.00  0.00     0.002 C 
BRANCH  37  38
HETATM   38  C29 UNL     1     -18.658  45.980 -21.993  1.00  0.00     0.010 C 
BRANCH  38  39
HETATM   39  C30 UNL     1     -19.357  45.608 -23.300  1.00  0.00     0.110 C 
BRANCH  39  40
HETATM   40  C31 UNL     1     -18.897  46.471 -24.447  1.00  0.00     0.139 C 
HETATM   41  O7  UNL     1     -17.754  46.733 -24.773  1.00  0.00    -0.650 OA
BRANCH  40  42
HETATM   42  O8  UNL     1     -19.938  46.968 -25.146  1.00  0.00    -0.776 OA
HETATM   43  H45 UNL     1     -19.513  47.495 -25.857  1.00  0.00     0.167 HD
ENDBRANCH  40  42
ENDBRANCH  39  40
ENDBRANCH  38  39
ENDBRANCH  37  38
ENDBRANCH  36  37
ENDBRANCH  35  36
ENDBRANCH  33  35
ENDBRANCH  30  31
ENDBRANCH  29  30
ENDBRANCH  27  29
ENDBRANCH  26  27
ENDBRANCH  25  26
ENDBRANCH  23  25
ENDBRANCH  20  23
TORSDOF 15
ENDMDL
