MODEL 1
REMARK minimizedAffinity -8.09623241
REMARK  8 active torsions:
REMARK  status: ('A' for Active; 'I' for Inactive)
REMARK    1  A    between atoms: C2_2  and  O2_4 
REMARK    2  A    between atoms: O2_4  and  C3_5 
REMARK    3  A    between atoms: C12_15  and  C13_16 
REMARK    4  A    between atoms: C13_16  and  O5_18 
REMARK    5  A    between atoms: O5_18  and  C14_19 
REMARK    6  A    between atoms: C14_19  and  C15_20 
REMARK    7  A    between atoms: C15_20  and  N1_21 
REMARK    8  A    between atoms: C25_31  and  O6_32 
ROOT
HETATM    1  C3  UNL     1       8.381  63.003 -35.158  1.00  0.00     0.097 C 
HETATM    2  C4  UNL     1       9.312  62.422 -36.251  1.00  0.00     0.050 C 
HETATM    3  C5  UNL     1       7.367  63.988 -35.850  1.00  0.00     0.038 C 
HETATM    4  C6  UNL     1       8.035  65.284 -36.360  1.00  0.00     0.087 C 
HETATM    5  C7  UNL     1       7.013  66.143 -37.080  1.00  0.00     0.132 C 
HETATM    6  O3  UNL     1       7.159  66.459 -38.257  1.00  0.00    -0.298 OA
HETATM    7  C8  UNL     1       5.826  66.545 -36.223  1.00  0.00     0.068 C 
HETATM    8  C9  UNL     1       4.837  67.619 -36.756  1.00  0.00     0.022 C 
HETATM    9  C10 UNL     1       5.513  68.760 -37.527  1.00  0.00     0.015 C 
HETATM   10  C11 UNL     1       3.581  66.993 -37.366  1.00  0.00    -0.070 C 
HETATM   11  C12 UNL     1       3.184  67.248 -38.632  1.00  0.00     0.085 C 
HETATM   12  C18 UNL     1       2.847  66.072 -36.400  1.00  0.00     0.035 C 
HETATM   13  C19 UNL     1       3.744  65.517 -35.276  1.00  0.00     0.010 C 
HETATM   14  C20 UNL     1       5.134  65.207 -35.848  1.00  0.00     0.006 C 
HETATM   15  C21 UNL     1       6.072  64.270 -34.995  1.00  0.00    -0.033 C 
HETATM   16  C22 UNL     1       6.393  64.939 -33.638  1.00  0.00     0.016 C 
HETATM   17  C23 UNL     1       5.345  62.913 -34.725  1.00  0.00     0.012 C 
HETATM   18  C24 UNL     1       6.202  61.663 -34.960  1.00  0.00     0.035 C 
HETATM   19  C25 UNL     1       7.630  61.819 -34.450  1.00  0.00     0.153 C 
ENDROOT
BRANCH  11  20
HETATM   20  C13 UNL     1       2.001  66.791 -39.400  1.00  0.00     0.283 C 
HETATM   21  O4  UNL     1       0.970  66.445 -38.838  1.00  0.00    -0.260 OA
BRANCH  20  22
HETATM   22  O5  UNL     1       2.201  66.796 -40.735  1.00  0.00    -0.316 OA
BRANCH  22  23
HETATM   23  C14 UNL     1       2.103  68.092 -41.348  1.00  0.00     0.209 C 
BRANCH  23  24
HETATM   24  C15 UNL     1       0.951  68.854 -40.672  1.00  0.00     0.298 C 
BRANCH  24  25
HETATM   25  N1  UNL     1      -0.351  68.879 -41.355  1.00  0.00     0.082 N 
HETATM   26  C16 UNL     1      -0.648  67.622 -42.038  1.00  0.00     0.309 C 
HETATM   27  C17 UNL     1      -1.445  69.254 -40.460  1.00  0.00     0.309 C 
ENDBRANCH  24  25
ENDBRANCH  23  24
ENDBRANCH  22  23
ENDBRANCH  20  22
ENDBRANCH  11  20
BRANCH   1  28
HETATM   28  O2  UNL     1       9.198  63.810 -34.262  1.00  0.00    -0.308 OA
BRANCH  28  29
HETATM   29  C2  UNL     1      10.197  63.250 -33.534  1.00  0.00     0.255 C 
HETATM   30  C1  UNL     1      11.459  63.215 -34.339  1.00  0.00     0.126 C 
HETATM   31  O1  UNL     1      10.100  62.853 -32.381  1.00  0.00    -0.266 OA
ENDBRANCH  28  29
ENDBRANCH   1  28
BRANCH  19  32
HETATM   32  O6  UNL     1       7.560  61.956 -33.030  1.00  0.00    -0.393 OA
HETATM   33  H39 UNL     1       8.427  61.649 -32.694  1.00  0.00     0.210 HD
ENDBRANCH  19  32
TORSDOF 8
ENDMDL
