MODEL 1
REMARK minimizedAffinity -9.0554409
REMARK  6 active torsions:
REMARK  status: ('A' for Active; 'I' for Inactive)
REMARK    1  A    between atoms: C2_2  and  C30_31 
REMARK    2  A    between atoms: C3_3  and  C4_4 
REMARK    3  A    between atoms: C4_4  and  C5_5 
REMARK    4  A    between atoms: C5_5  and  C6_6 
REMARK    5  A    between atoms: C6_6  and  C8_8 
REMARK    6  A    between atoms: C30_31  and  O2_32 
ROOT
HETATM    1  C8  UNL     1      -5.423   7.813  15.693  1.00  0.00    -0.002 C 
HETATM    2  C9  UNL     1      -5.370   9.357  15.555  1.00  0.00     0.007 C 
HETATM    3  C10 UNL     1      -4.067   9.695  14.796  1.00  0.00     0.015 C 
HETATM    4  C11 UNL     1      -3.263   8.376  14.769  1.00  0.00    -0.013 C 
HETATM    5  C12 UNL     1      -2.492   8.322  16.128  1.00  0.00     0.021 C 
HETATM    6  C13 UNL     1      -2.209   8.177  13.688  1.00  0.00    -0.070 C 
HETATM    7  C14 UNL     1      -1.529   9.204  13.148  1.00  0.00    -0.022 C 
HETATM    8  C15 UNL     1      -0.381   9.056  12.200  1.00  0.00     0.034 C 
HETATM    9  C16 UNL     1      -0.108   7.618  11.698  1.00  0.00     0.013 C 
HETATM   10  C17 UNL     1       1.291   7.477  10.985  1.00  0.00     0.018 C 
HETATM   11  C18 UNL     1       2.423   8.322  11.609  1.00  0.00     0.023 C 
HETATM   12  C19 UNL     1       1.163   7.908   9.508  1.00  0.00     0.023 C 
HETATM   13  C20 UNL     1       1.723   6.008  10.979  1.00  0.00     0.135 C 
HETATM   14  O1  UNL     1       2.903   5.664  10.908  1.00  0.00    -0.297 OA
HETATM   15  C21 UNL     1       0.627   4.978  10.962  1.00  0.00     0.080 C 
HETATM   16  C22 UNL     1      -0.285   5.100  12.170  1.00  0.00     0.017 C 
HETATM   17  C23 UNL     1      -0.415   6.526  12.791  1.00  0.00    -0.031 C 
HETATM   18  C24 UNL     1       0.565   6.635  13.984  1.00  0.00     0.016 C 
HETATM   19  C25 UNL     1      -1.914   6.734  13.269  1.00  0.00     0.024 C 
HETATM   20  C26 UNL     1      -2.430   5.679  14.286  1.00  0.00     0.010 C 
HETATM   21  C27 UNL     1      -3.861   5.904  14.836  1.00  0.00     0.011 C 
HETATM   22  C28 UNL     1      -4.414   7.325  14.605  1.00  0.00    -0.029 C 
HETATM   23  C29 UNL     1      -5.106   7.367  13.209  1.00  0.00     0.016 C 
ENDROOT
BRANCH   1  24
HETATM   24  C6  UNL     1      -6.837   7.158  15.742  1.00  0.00    -0.014 C 
HETATM   25  C7  UNL     1      -6.869   5.727  16.293  1.00  0.00     0.010 C 
BRANCH  24  26
HETATM   26  C5  UNL     1      -7.469   7.212  14.322  1.00  0.00     0.008 C 
BRANCH  26  27
HETATM   27  C4  UNL     1      -8.044   5.879  13.835  1.00  0.00     0.028 C 
BRANCH  27  28
HETATM   28  C3  UNL     1      -7.148   5.215  12.823  1.00  0.00    -0.022 C 
HETATM   29  C2  UNL     1      -6.970   3.888  12.657  1.00  0.00    -0.064 C 
HETATM   30  C1  UNL     1      -6.072   3.360  11.571  1.00  0.00     0.045 C 
BRANCH  29  31
HETATM   31  C30 UNL     1      -7.617   2.838  13.523  1.00  0.00     0.197 C 
BRANCH  31  32
HETATM   32  O2  UNL     1      -7.789   1.634  12.789  1.00  0.00    -0.397 OA
HETATM   33  H48 UNL     1      -7.091   1.605  12.112  1.00  0.00     0.209 HD
ENDBRANCH  31  32
ENDBRANCH  29  31
ENDBRANCH  27  28
ENDBRANCH  26  27
ENDBRANCH  24  26
ENDBRANCH   1  24
TORSDOF 6
ENDMDL
