MODEL 1
REMARK minimizedAffinity -8.81435394
REMARK CNNscore 0.60812223
REMARK CNNaffinity 6.76297808
REMARK  5 active torsions:
REMARK  status: ('A' for Active; 'I' for Inactive)
REMARK    1  A    between atoms: C2_2  and  C3_3 
REMARK    2  A    between atoms: C6_6  and  C7_7 
REMARK    3  A    between atoms: C7_7  and  O1_9 
REMARK    4  A    between atoms: C23_29  and  O6_30 
REMARK    5  A    between atoms: C28_36  and  O8_37 
ROOT
HETATM    1  C3  UNL     1      -5.460  51.118 -22.629  1.00  0.00     0.008 C 
HETATM    2  C4  UNL     1      -4.676  51.649 -23.833  1.00  0.00    -0.023 C 
HETATM    3  C5  UNL     1      -3.579  51.091 -24.381  1.00  0.00     0.004 C 
HETATM    4  C6  UNL     1      -2.702  51.709 -25.454  1.00  0.00     0.183 C 
HETATM    5  O2  UNL     1      -1.412  51.825 -24.822  1.00  0.00    -0.306 OA
HETATM    6  C9  UNL     1      -0.593  52.833 -25.214  1.00  0.00     0.289 C 
HETATM    7  O3  UNL     1      -0.693  53.482 -26.241  1.00  0.00    -0.260 OA
HETATM    8  C10 UNL     1       0.312  53.174 -24.058  1.00  0.00     0.010 C 
HETATM    9  C11 UNL     1       0.464  54.642 -23.809  1.00  0.00     0.054 C 
HETATM   10  C12 UNL     1       0.668  52.157 -23.241  1.00  0.00     0.004 C 
HETATM   11  C13 UNL     1       1.003  52.161 -21.762  1.00  0.00     0.147 C 
HETATM   12  C14 UNL     1       1.606  53.399 -21.084  1.00  0.00     0.233 C 
HETATM   13  O4  UNL     1       2.556  54.055 -21.478  1.00  0.00    -0.272 OA
HETATM   14  N1  UNL     1       0.922  53.630 -19.899  1.00  0.00    -0.327 N 
HETATM   15  C15 UNL     1      -0.135  52.795 -19.721  1.00  0.00     0.056 C 
HETATM   16  C16 UNL     1      -0.991  52.742 -18.697  1.00  0.00     0.084 C 
HETATM   17  C17 UNL     1      -2.110  51.747 -18.806  1.00  0.00     0.185 C 
HETATM   18  O5  UNL     1      -3.139  51.935 -18.176  1.00  0.00    -0.287 OA
HETATM   19  C18 UNL     1      -1.867  50.531 -19.658  1.00  0.00     0.040 C 
HETATM   20  C19 UNL     1      -0.791  50.569 -20.572  1.00  0.00    -0.001 C 
HETATM   21  C20 UNL     1      -0.396  49.396 -21.229  1.00  0.00     0.021 C 
HETATM   22  C21 UNL     1      -1.110  48.199 -21.062  1.00  0.00    -0.027 C 
HETATM   23  C22 UNL     1      -0.662  46.971 -21.804  1.00  0.00     0.051 C 
HETATM   24  C23 UNL     1      -2.294  48.231 -20.312  1.00  0.00     0.086 C 
HETATM   25  C24 UNL     1      -2.686  49.402 -19.639  1.00  0.00     0.058 C 
HETATM   26  C25 UNL     1      -4.100  49.514 -19.222  1.00  0.00     0.163 C 
HETATM   27  O7  UNL     1      -4.439  49.086 -18.122  1.00  0.00    -0.292 OA
HETATM   28  C26 UNL     1      -5.088  50.154 -20.216  1.00  0.00     0.084 C 
HETATM   29  C27 UNL     1      -4.547  50.348 -21.645  1.00  0.00     0.016 C 
HETATM   30  C28 UNL     1      -0.307  51.949 -20.942  1.00  0.00     0.143 C 
HETATM   31  H20 UNL     1       1.203  54.369 -19.263  1.00  0.00     0.168 HD
ENDROOT
BRANCH   4  32
HETATM   32  C7  UNL     1      -2.598  50.880 -26.759  1.00  0.00     0.147 C 
HETATM   33  C8  UNL     1      -3.587  49.721 -26.842  1.00  0.00     0.042 C 
BRANCH  32  34
HETATM   34  O1  UNL     1      -2.777  51.699 -27.918  1.00  0.00    -0.393 OA
HETATM   35  H14 UNL     1      -2.110  52.407 -27.883  1.00  0.00     0.210 HD
ENDBRANCH  32  34
ENDBRANCH   4  32
BRANCH   1  36
HETATM   36  C2  UNL     1      -6.666  50.268 -23.063  1.00  0.00     0.004 C 
HETATM   37  C1  UNL     1      -7.317  49.503 -21.917  1.00  0.00     0.006 C 
ENDBRANCH   1  36
BRANCH  30  38
HETATM   38  O8  UNL     1      -1.435  52.524 -21.644  1.00  0.00    -0.377 OA
HETATM   39  H31 UNL     1      -1.329  53.490 -21.662  1.00  0.00     0.211 HD
ENDBRANCH  30  38
BRANCH  24  40
HETATM   40  O6  UNL     1      -3.140  47.156 -20.281  1.00  0.00    -0.359 OA
HETATM   41  H26 UNL     1      -2.702  46.358 -20.615  1.00  0.00     0.217 HD
ENDBRANCH  24  40
TORSDOF 5
ENDMDL
