MODEL 1
REMARK minimizedAffinity -7.81737852
REMARK  7 active torsions:
REMARK  status: ('A' for Active; 'I' for Inactive)
REMARK    1  A    between atoms: O1_2  and  C2_3 
REMARK    2  A    between atoms: C2_3  and  C3_5 
REMARK    3  A    between atoms: C17_20  and  C18_21 
REMARK    4  A    between atoms: C18_21  and  O5_23 
REMARK    5  A    between atoms: O5_23  and  C19_24 
REMARK    6  A    between atoms: C19_24  and  C20_25 
REMARK    7  A    between atoms: C20_25  and  N1_26 
ROOT
HETATM    1  C3  UNL     1      -7.134   6.958  14.609  1.00  0.00     0.049 C 
HETATM    2  C4  UNL     1      -8.413   6.581  13.830  1.00  0.00     0.026 C 
HETATM    3  C5  UNL     1      -7.106   8.498  14.773  1.00  0.00     0.020 C 
HETATM    4  C6  UNL     1      -5.826   8.982  15.442  1.00  0.00     0.002 C 
HETATM    5  C7  UNL     1      -4.597   8.595  14.626  1.00  0.00     0.010 C 
HETATM    6  C8  UNL     1      -4.481   7.070  14.316  1.00  0.00    -0.034 C 
HETATM    7  C9  UNL     1      -4.016   6.357  15.608  1.00  0.00     0.016 C 
HETATM    8  C10 UNL     1      -5.858   6.538  13.783  1.00  0.00     0.019 C 
HETATM    9  C11 UNL     1      -5.817   5.048  13.396  1.00  0.00     0.085 C 
HETATM   10  C12 UNL     1      -4.428   4.560  13.058  1.00  0.00     0.132 C 
HETATM   11  O3  UNL     1      -4.125   3.383  13.266  1.00  0.00    -0.298 OA
HETATM   12  C13 UNL     1      -3.488   5.544  12.366  1.00  0.00     0.068 C 
HETATM   13  C14 UNL     1      -2.119   4.859  12.036  1.00  0.00     0.022 C 
HETATM   14  C15 UNL     1      -2.320   3.917  10.824  1.00  0.00     0.015 C 
HETATM   15  C16 UNL     1      -0.929   5.802  11.808  1.00  0.00    -0.070 C 
HETATM   16  C17 UNL     1       0.241   5.345  11.306  1.00  0.00     0.085 C 
HETATM   17  C23 UNL     1      -1.088   7.218  12.304  1.00  0.00     0.035 C 
HETATM   18  C24 UNL     1      -1.981   7.256  13.538  1.00  0.00     0.010 C 
HETATM   19  C25 UNL     1      -3.418   6.884  13.153  1.00  0.00     0.006 C 
ENDROOT
BRANCH  16  20
HETATM   20  C18 UNL     1       1.468   6.126  11.034  1.00  0.00     0.283 C 
HETATM   21  O4  UNL     1       1.952   6.895  11.854  1.00  0.00    -0.260 OA
BRANCH  20  22
HETATM   22  O5  UNL     1       1.994   5.788   9.831  1.00  0.00    -0.316 OA
BRANCH  22  23
HETATM   23  C19 UNL     1       3.149   6.546   9.431  1.00  0.00     0.209 C 
BRANCH  23  24
HETATM   24  C20 UNL     1       2.754   7.684   8.473  1.00  0.00     0.298 C 
BRANCH  24  25
HETATM   25  N1  UNL     1       1.419   7.527   7.861  1.00  0.00     0.082 N 
HETATM   26  C21 UNL     1       0.481   8.552   8.325  1.00  0.00     0.309 C 
HETATM   27  C22 UNL     1       1.530   7.591   6.400  1.00  0.00     0.309 C 
ENDBRANCH  24  25
ENDBRANCH  23  24
ENDBRANCH  22  23
ENDBRANCH  20  22
ENDBRANCH  16  20
BRANCH   1  28
HETATM   28  C2  UNL     1      -7.275   6.262  15.980  1.00  0.00     0.267 C 
HETATM   29  O2  UNL     1      -6.373   5.684  16.571  1.00  0.00    -0.264 OA
BRANCH  28  30
HETATM   30  O1  UNL     1      -8.559   6.315  16.437  1.00  0.00    -0.326 OA
HETATM   31  C1  UNL     1      -8.968   7.601  16.910  1.00  0.00     0.213 C 
ENDBRANCH  28  30
ENDBRANCH   1  28
TORSDOF 7
ENDMDL
