MODEL 1
REMARK minimizedAffinity -6.9318676
REMARK CNNscore 0.635856509
REMARK CNNaffinity 7.00428534
REMARK  10 active torsions:
REMARK  status: ('A' for Active; 'I' for Inactive)
REMARK    1  A    between atoms: C2_2  and  O1_3 
REMARK    2  A    between atoms: O1_3  and  C3_4 
REMARK    3  A    between atoms: C3_4  and  C4_6 
REMARK    4  A    between atoms: C4_6  and  C5_7 
REMARK    5  A    between atoms: C5_7  and  C6_8 
REMARK    6  A    between atoms: C6_8  and  C8_10 
REMARK    7  A    between atoms: C13_15  and  O3_16 
REMARK    8  A    between atoms: C17_21  and  O4_22 
REMARK    9  A    between atoms: C24_29  and  O5_30 
REMARK   10  A    between atoms: O5_30  and  C25_31 
ROOT
HETATM    1  C8  UNL     1      -2.795  49.716 -21.695  1.00  0.00     0.000 C 
HETATM    2  C9  UNL     1      -2.854  48.645 -22.821  1.00  0.00     0.006 C 
HETATM    3  C10 UNL     1      -2.325  47.337 -22.262  1.00  0.00     0.006 C 
HETATM    4  C11 UNL     1      -2.472  47.456 -20.745  1.00  0.00     0.003 C 
HETATM    5  C12 UNL     1      -3.896  47.011 -20.278  1.00  0.00     0.025 C 
HETATM    6  C13 UNL     1      -4.061  45.476 -20.215  1.00  0.00     0.137 C 
HETATM    7  C14 UNL     1      -5.540  45.078 -20.089  1.00  0.00     0.092 C 
HETATM    8 BR1  UNL     1      -6.258  44.521 -21.841  1.00  0.00    -0.088 Br
HETATM    9  C15 UNL     1      -6.454  46.094 -19.348  1.00  0.00     0.013 C 
HETATM   10  C16 UNL     1      -7.387  46.986 -20.196  1.00  0.00     0.038 C 
HETATM   11  C17 UNL     1      -8.498  47.613 -19.339  1.00  0.00     0.118 C 
HETATM   12  C18 UNL     1      -8.070  47.863 -17.893  1.00  0.00     0.032 C 
HETATM   13  C19 UNL     1      -6.584  48.194 -17.844  1.00  0.00     0.012 C 
HETATM   14  C20 UNL     1      -5.672  47.010 -18.319  1.00  0.00    -0.035 C 
HETATM   15  C21 UNL     1      -5.392  46.140 -17.057  1.00  0.00     0.016 C 
HETATM   16  C22 UNL     1      -4.255  47.518 -18.858  1.00  0.00     0.003 C 
HETATM   17  C23 UNL     1      -3.999  49.023 -18.758  1.00  0.00     0.039 C 
HETATM   18  C24 UNL     1      -2.537  49.360 -19.059  1.00  0.00     0.141 C 
HETATM   19  C27 UNL     1      -2.093  48.963 -20.497  1.00  0.00    -0.009 C 
HETATM   20  C28 UNL     1      -0.551  49.111 -20.584  1.00  0.00     0.018 C 
ENDROOT
BRANCH   1  21
HETATM   21  C6  UNL     1      -2.220  51.050 -22.301  1.00  0.00    -0.013 C 
HETATM   22  C7  UNL     1      -1.495  51.853 -21.196  1.00  0.00     0.010 C 
BRANCH  21  23
HETATM   23  C5  UNL     1      -1.263  50.867 -23.498  1.00  0.00     0.014 C 
BRANCH  23  24
HETATM   24  C4  UNL     1      -0.072  51.831 -23.564  1.00  0.00     0.111 C 
BRANCH  24  25
HETATM   25  C3  UNL     1      -0.195  52.820 -24.700  1.00  0.00     0.258 C 
HETATM   26  O2  UNL     1      -1.197  53.478 -24.947  1.00  0.00    -0.265 OA
BRANCH  25  27
HETATM   27  O1  UNL     1       0.959  52.845 -25.423  1.00  0.00    -0.322 OA
BRANCH  27  28
HETATM   28  C2  UNL     1       1.056  51.799 -26.398  1.00  0.00     0.174 C 
HETATM   29  C1  UNL     1       2.520  51.454 -26.589  1.00  0.00     0.034 C 
ENDBRANCH  27  28
ENDBRANCH  25  27
ENDBRANCH  24  25
ENDBRANCH  23  24
ENDBRANCH  21  23
ENDBRANCH   1  21
BRANCH  18  30
HETATM   30  O5  UNL     1      -2.356  50.766 -18.827  1.00  0.00    -0.316 OA
BRANCH  30  31
HETATM   31  C25 UNL     1      -2.002  51.145 -17.567  1.00  0.00     0.255 C 
HETATM   32  C26 UNL     1      -0.507  51.167 -17.448  1.00  0.00     0.126 C 
HETATM   33  O6  UNL     1      -2.771  51.430 -16.660  1.00  0.00    -0.266 OA
ENDBRANCH  30  31
ENDBRANCH  18  30
BRANCH   6  34
HETATM   34  O3  UNL     1      -3.385  44.762 -21.241  1.00  0.00    -0.394 OA
HETATM   35  H22 UNL     1      -3.950  44.793 -22.035  1.00  0.00     0.210 HD
ENDBRANCH   6  34
BRANCH  11  36
HETATM   36  O4  UNL     1      -8.881  48.840 -19.955  1.00  0.00    -0.396 OA
HETATM   37  H28 UNL     1      -9.648  49.188 -19.468  1.00  0.00     0.210 HD
ENDBRANCH  11  36
TORSDOF 10
ENDMDL
