MODEL 1
REMARK minimizedAffinity -7.73062563
REMARK CNNscore 0.244885489
REMARK CNNaffinity 5.73600149
REMARK  2 active torsions:
REMARK  status: ('A' for Active; 'I' for Inactive)
REMARK    1  A    between atoms: C21_27  and  C22_28 
REMARK    2  A    between atoms: C22_28  and  O7_30 
ROOT
HETATM    1  C1  UNL     1      12.438  -7.784   5.203  1.00  0.00     0.043 C 
HETATM    2  C2  UNL     1      12.930  -6.581   5.964  1.00  0.00    -0.076 C 
HETATM    3  C3  UNL     1      13.413  -6.723   7.217  1.00  0.00     0.084 C 
HETATM    4  C4  UNL     1      13.980  -5.622   8.030  1.00  0.00     0.283 C 
HETATM    5  O1  UNL     1      13.784  -4.434   7.845  1.00  0.00    -0.260 OA
HETATM    6  O2  UNL     1      14.843  -6.161   8.934  1.00  0.00    -0.317 OA
HETATM    7  C5  UNL     1      15.741  -5.220   9.559  1.00  0.00     0.195 C 
HETATM    8  C6  UNL     1      17.217  -5.326   9.001  1.00  0.00     0.053 C 
HETATM    9  C7  UNL     1      17.801  -6.711   9.535  1.00  0.00     0.159 C 
HETATM   10  C8  UNL     1      17.397  -7.943   8.770  1.00  0.00     0.011 C 
HETATM   11  C9  UNL     1      17.021  -7.901   7.479  1.00  0.00    -0.054 C 
HETATM   12  C10 UNL     1      16.648  -9.149   6.730  1.00  0.00     0.046 C 
HETATM   13  C11 UNL     1      17.031  -6.645   6.715  1.00  0.00     0.180 A 
HETATM   14  O3  UNL     1      18.201  -5.824   6.712  1.00  0.00    -0.370 OA
HETATM   15  C12 UNL     1      17.097  -5.330   7.479  1.00  0.00     0.170 A 
HETATM   16  O4  UNL     1      19.229  -6.787   9.670  1.00  0.00    -0.372 OA
HETATM   17  C13 UNL     1      19.879  -5.583  10.086  1.00  0.00     0.162 C 
HETATM   18  C14 UNL     1      20.331  -4.839   8.816  1.00  0.00     0.068 C 
HETATM   19  C15 UNL     1      19.332  -3.676   8.674  1.00  0.00     0.147 C 
HETATM   20  O5  UNL     1      18.944  -3.349   7.343  1.00  0.00    -0.312 OA
HETATM   21  C16 UNL     1      19.894  -2.855   6.521  1.00  0.00     0.283 C 
HETATM   22  O6  UNL     1      21.038  -2.562   6.832  1.00  0.00    -0.260 OA
HETATM   23  C17 UNL     1      19.410  -2.808   5.124  1.00  0.00     0.082 C 
HETATM   24  C18 UNL     1      18.169  -2.585   4.658  1.00  0.00     0.006 C 
HETATM   25  C19 UNL     1      17.005  -2.195   5.421  1.00  0.00    -0.001 C 
HETATM   26  C20 UNL     1      15.728  -2.236   5.008  1.00  0.00     0.007 C 
HETATM   27  C21 UNL     1      15.159  -2.797   3.724  1.00  0.00     0.172 C 
HETATM   28  O8  UNL     1      13.938  -3.486   4.045  1.00  0.00    -0.379 OA
HETATM   29  C24 UNL     1      14.141  -4.786   4.604  1.00  0.00     0.173 C 
HETATM   30  C25 UNL     1      12.819  -5.267   5.211  1.00  0.00     0.060 C 
HETATM   31  C26 UNL     1      18.104  -4.092   9.563  1.00  0.00     0.034 C 
HETATM   32  C27 UNL     1      17.316  -2.816   9.888  1.00  0.00     0.022 C 
HETATM   33  C28 UNL     1      18.881  -4.669  10.721  1.00  0.00     0.119 A 
HETATM   34  C29 UNL     1      18.467  -4.726  12.172  1.00  0.00     0.210 A 
HETATM   35  O9  UNL     1      19.399  -3.743  11.681  1.00  0.00    -0.371 OA
ENDROOT
BRANCH  27  36
HETATM   36  C22 UNL     1      14.831  -1.657   2.720  1.00  0.00     0.146 C 
HETATM   37  C23 UNL     1      13.550  -0.911   3.090  1.00  0.00     0.042 C 
BRANCH  36  38
HETATM   38  O7  UNL     1      14.673  -2.164   1.389  1.00  0.00    -0.393 OA
HETATM   39  H27 UNL     1      13.864  -2.699   1.366  1.00  0.00     0.210 HD
ENDBRANCH  36  38
ENDBRANCH  27  36
TORSDOF 2
ENDMDL
