MODEL 1
REMARK minimizedAffinity -9.01004505
REMARK  8 active torsions:
REMARK  status: ('A' for Active; 'I' for Inactive)
REMARK    1  A    between atoms: C4_4  and  C5_5 
REMARK    2  A    between atoms: C5_5  and  C6_6 
REMARK    3  A    between atoms: C6_6  and  C7_7 
REMARK    4  A    between atoms: C9_9  and  C10_10 
REMARK    5  A    between atoms: C11_11  and  C12_12 
REMARK    6  A    between atoms: C14_14  and  C15_15 
REMARK    7  A    between atoms: C24_25  and  C26_27 
REMARK    8  A    between atoms: C29_31  and  O3_33 
ROOT
HETATM    1  C15 UNL     1      -5.844  48.076 -29.436  1.00  0.00     0.149 C 
HETATM    2  C16 UNL     1      -6.070  46.577 -29.603  1.00  0.00     0.054 C 
HETATM    3  C17 UNL     1      -6.887  46.430 -30.909  1.00  0.00     0.050 C 
HETATM    4  C18 UNL     1      -6.610  47.807 -31.584  1.00  0.00     0.272 C 
HETATM    5  O1  UNL     1      -6.202  47.727 -32.939  1.00  0.00    -0.360 OA
HETATM    6  C19 UNL     1      -4.806  47.595 -33.142  1.00  0.00     0.171 C 
HETATM    7  C20 UNL     1      -4.196  46.412 -32.412  1.00  0.00     0.027 C 
HETATM    8  C21 UNL     1      -5.071  45.168 -32.471  1.00  0.00     0.012 C 
HETATM    9  C22 UNL     1      -6.437  45.156 -31.722  1.00  0.00     0.032 C 
HETATM   10  C23 UNL     1      -7.534  44.572 -32.657  1.00  0.00    -0.066 C 
HETATM   11  C24 UNL     1      -7.560  43.260 -33.016  1.00  0.00    -0.021 C 
HETATM   12  C25 UNL     1      -6.590  42.201 -32.549  1.00  0.00     0.052 C 
HETATM   13  C27 UNL     1      -8.551  45.607 -33.086  1.00  0.00     0.038 C 
HETATM   14  C28 UNL     1      -9.251  46.279 -31.900  1.00  0.00     0.042 C 
HETATM   15  C29 UNL     1      -8.427  46.291 -30.592  1.00  0.00     0.067 C 
HETATM   16  C30 UNL     1      -8.796  45.051 -29.743  1.00  0.00     0.047 C 
HETATM   17  O4  UNL     1      -5.694  48.547 -30.771  1.00  0.00    -0.351 OA
ENDROOT
BRANCH   1  18
HETATM   18  C14 UNL     1      -4.636  48.370 -28.584  1.00  0.00     0.011 C 
HETATM   19  C12 UNL     1      -4.506  48.393 -27.239  1.00  0.00    -0.063 C 
HETATM   20  C13 UNL     1      -5.607  48.003 -26.285  1.00  0.00     0.048 C 
BRANCH  19  21
HETATM   21  C11 UNL     1      -3.212  48.784 -26.673  1.00  0.00     0.006 C 
HETATM   22  C10 UNL     1      -2.563  49.943 -26.878  1.00  0.00     0.001 C 
BRANCH  22  23
HETATM   23  C9  UNL     1      -1.277  50.230 -26.275  1.00  0.00     0.002 C 
HETATM   24  C7  UNL     1      -0.318  51.053 -26.747  1.00  0.00    -0.084 C 
HETATM   25  C8  UNL     1      -0.388  51.846 -28.027  1.00  0.00     0.043 C 
BRANCH  24  26
HETATM   26  C6  UNL     1       0.984  51.206 -25.975  1.00  0.00     0.037 C 
BRANCH  26  27
HETATM   27  C5  UNL     1       0.926  52.324 -24.928  1.00  0.00     0.031 C 
BRANCH  27  28
HETATM   28  C4  UNL     1      -0.251  52.154 -24.004  1.00  0.00    -0.024 C 
HETATM   29  C2  UNL     1      -0.237  52.116 -22.656  1.00  0.00    -0.091 C 
HETATM   30  C1  UNL     1       0.987  52.302 -21.802  1.00  0.00     0.042 C 
HETATM   31  C3  UNL     1      -1.508  51.885 -21.880  1.00  0.00     0.042 C 
ENDBRANCH  27  28
ENDBRANCH  26  27
ENDBRANCH  24  26
ENDBRANCH  22  23
ENDBRANCH  19  21
ENDBRANCH   1  18
BRANCH  15  32
HETATM   32  O3  UNL     1      -8.858  47.419 -29.815  1.00  0.00    -0.389 OA
HETATM   33  H44 UNL     1      -9.810  47.322 -29.633  1.00  0.00     0.210 HD
ENDBRANCH  15  32
BRANCH  11  34
HETATM   34  C26 UNL     1      -8.587  42.697 -33.957  1.00  0.00     0.265 C 
HETATM   35  O2  UNL     1      -8.447  42.709 -35.176  1.00  0.00    -0.302 OA
ENDBRANCH  11  34
TORSDOF 8
ENDMDL
