MODEL 1
REMARK minimizedAffinity -8.12986279
REMARK CNNscore 0.547885358
REMARK CNNaffinity 7.27048063
REMARK  19 active torsions:
REMARK  status: ('A' for Active; 'I' for Inactive)
REMARK    1  A    between atoms: O1_2  and  C2_3 
REMARK    2  A    between atoms: C2_3  and  C3_4 
REMARK    3  A    between atoms: C2_3  and  C28_36 
REMARK    4  A    between atoms: C3_4  and  C4_5 
REMARK    5  A    between atoms: C4_5  and  C6_7 
REMARK    6  A    between atoms: C6_7  and  O2_8 
REMARK    7  A    between atoms: C6_7  and  C7_9 
REMARK    8  A    between atoms: C8_10  and  C9_11 
REMARK    9  A    between atoms: C10_12  and  C11_13 
REMARK   10  A    between atoms: C11_13  and  N1_14 
REMARK       I    between atoms: N1_14  and  C12_15 
REMARK   11  A    between atoms: C12_15  and  C13_17 
REMARK   12  A    between atoms: C13_17  and  C16_20 
REMARK   13  A    between atoms: C16_20  and  O4_21 
REMARK   14  A    between atoms: C16_20  and  C17_22 
REMARK   15  A    between atoms: C19_24  and  C20_25 
REMARK   16  A    between atoms: C21_26  and  C22_27 
REMARK   17  A    between atoms: C23_28  and  C24_29 
REMARK   18  A    between atoms: C26_31  and  N2_33 
REMARK   19  A    between atoms: C28_36  and  O7_37 
ROOT
HETATM    1  C9  UNL     1      -1.969   4.275  12.362  1.00  0.00    -0.003 C 
HETATM    2  C10 UNL     1      -3.198   4.575  11.910  1.00  0.00    -0.007 C 
ENDROOT
BRANCH   1   3
HETATM    3  C8  UNL     1      -1.051   5.298  12.815  1.00  0.00    -0.002 C 
HETATM    4  C7  UNL     1      -1.156   5.906  14.006  1.00  0.00     0.005 C 
BRANCH   4   5
HETATM    5  C6  UNL     1      -0.239   6.986  14.536  1.00  0.00     0.144 C 
BRANCH   5   6
HETATM    6  C4  UNL     1       0.369   7.863  13.421  1.00  0.00     0.016 C 
HETATM    7  C5  UNL     1      -0.718   8.571  12.605  1.00  0.00     0.013 C 
BRANCH   6   8
HETATM    8  C3  UNL     1       1.428   7.152  12.527  1.00  0.00     0.042 C 
BRANCH   8   9
HETATM    9  C2  UNL     1       2.807   7.830  12.308  1.00  0.00     0.159 C 
BRANCH   9  10
HETATM   10  O1  UNL     1       2.659   9.184  11.857  1.00  0.00    -0.388 OA
HETATM   11  C1  UNL     1       2.959  10.156  12.851  1.00  0.00     0.202 C 
ENDBRANCH   9  10
BRANCH   9  12
HETATM   12  C28 UNL     1       3.775   7.116  11.297  1.00  0.00     0.133 C 
HETATM   13  C29 UNL     1       5.108   7.949  11.201  1.00  0.00     0.114 C 
HETATM   14  C30 UNL     1       6.383   7.154  10.934  1.00  0.00     0.023 C 
HETATM   15  C31 UNL     1       4.879   8.868  10.028  1.00  0.00     0.227 C 
HETATM   16  O8  UNL     1       5.478   9.912   9.831  1.00  0.00    -0.273 OA
HETATM   17  N3  UNL     1       3.945   8.276   9.200  1.00  0.00    -0.332 N 
HETATM   18  C32 UNL     1       3.344   9.049   8.135  1.00  0.00     0.154 C 
HETATM   19  C33 UNL     1       3.246   7.104   9.835  1.00  0.00     0.183 C 
HETATM   20  C34 UNL     1       1.700   6.995   9.562  1.00  0.00     0.294 C 
HETATM   21  C35 UNL     1       3.259   5.835   8.904  1.00  0.00     0.169 C 
HETATM   22  O9  UNL     1       0.688   7.631   9.737  1.00  0.00    -0.262 OA
HETATM   23  O10 UNL     1       1.806   5.814   8.888  1.00  0.00    -0.311 OA
HETATM   24  C36 UNL     1       3.779   4.459   9.277  1.00  0.00     0.043 C 
BRANCH  12  25
HETATM   25  O7  UNL     1       4.034   5.805  11.799  1.00  0.00    -0.383 OA
HETATM   26  H42 UNL     1       4.839   5.431  11.403  1.00  0.00     0.210 HD
ENDBRANCH  12  25
ENDBRANCH   9  12
ENDBRANCH   8   9
ENDBRANCH   6   8
ENDBRANCH   5   6
BRANCH   5  27
HETATM   27  O2  UNL     1      -0.938   7.815  15.460  1.00  0.00    -0.391 OA
HETATM   28  H12 UNL     1      -1.451   7.220  16.040  1.00  0.00     0.210 HD
ENDBRANCH   5  27
ENDBRANCH   4   5
ENDBRANCH   1   3
BRANCH   2  29
HETATM   29  C11 UNL     1      -4.292   3.675  11.418  1.00  0.00     0.149 C 
BRANCH  29  30
HETATM   30  N1  UNL     1      -5.607   4.073  11.850  1.00  0.00    -0.357 N 
HETATM   31  C12 UNL     1      -5.795   4.465  13.162  1.00  0.00     0.228 C 
HETATM   32  O3  UNL     1      -4.837   4.575  13.930  1.00  0.00    -0.273 OA
HETATM   33  H19 UNL     1      -6.412   3.795  11.316  1.00  0.00     0.162 HD
BRANCH  31  34
HETATM   34  C13 UNL     1      -7.246   4.782  13.586  1.00  0.00     0.063 C 
HETATM   35  C14 UNL     1      -7.589   3.996  14.868  1.00  0.00     0.028 C 
HETATM   36  C15 UNL     1      -8.177   4.234  12.471  1.00  0.00     0.028 C 
BRANCH  34  37
HETATM   37  C16 UNL     1      -7.530   6.309  13.737  1.00  0.00     0.164 C 
BRANCH  37  38
HETATM   38  O4  UNL     1      -6.452   7.080  13.201  1.00  0.00    -0.390 OA
HETATM   39  H27 UNL     1      -6.737   8.008  13.197  1.00  0.00     0.210 HD
ENDBRANCH  37  38
BRANCH  37  40
HETATM   40  C17 UNL     1      -7.878   6.869  15.111  1.00  0.00    -0.054 C 
HETATM   41  C18 UNL     1      -6.798   6.813  16.170  1.00  0.00     0.046 C 
HETATM   42  C19 UNL     1      -9.027   7.518  15.415  1.00  0.00     0.005 C 
BRANCH  42  43
HETATM   43  C20 UNL     1     -10.134   7.812  14.524  1.00  0.00     0.000 C 
HETATM   44  C21 UNL     1     -11.157   6.964  14.327  1.00  0.00     0.000 C 
BRANCH  44  45
HETATM   45  C22 UNL     1     -12.285   7.290  13.471  1.00  0.00     0.001 C 
HETATM   46  C23 UNL     1     -13.562   7.201  13.889  1.00  0.00     0.009 C 
BRANCH  46  47
HETATM   47  C24 UNL     1     -14.765   7.555  13.117  1.00  0.00    -0.034 C 
HETATM   48  C25 UNL     1     -15.798   6.448  12.959  1.00  0.00     0.050 C 
HETATM   49  C26 UNL     1     -14.910   8.799  12.600  1.00  0.00     0.082 C 
HETATM   50  C27 UNL     1     -14.044  10.015  12.660  1.00  0.00     0.075 C 
BRANCH  49  51
HETATM   51  N2  UNL     1     -16.106   9.068  11.826  1.00  0.00    -0.120 N 
HETATM   52  O5  UNL     1     -17.055   9.586  12.431  1.00  0.00    -0.532 OA
HETATM   53  O6  UNL     1     -16.075   8.784  10.622  1.00  0.00    -0.532 OA
ENDBRANCH  49  51
ENDBRANCH  46  47
ENDBRANCH  44  45
ENDBRANCH  42  43
ENDBRANCH  37  40
ENDBRANCH  34  37
ENDBRANCH  31  34
ENDBRANCH  29  30
ENDBRANCH   2  29
TORSDOF 19
ENDMDL
