MODEL 1
REMARK minimizedAffinity -6.88033056
REMARK CNNscore 0.66319561
REMARK CNNaffinity 6.1801877
REMARK  8 active torsions:
REMARK  status: ('A' for Active; 'I' for Inactive)
REMARK    1  A    between atoms: C12_14  and  C13_15 
REMARK    2  A    between atoms: C13_15  and  C15_17 
REMARK    3  A    between atoms: C15_17  and  C16_18 
REMARK    4  A    between atoms: C16_18  and  C17_19 
REMARK    5  A    between atoms: C26_28  and  C27_29 
REMARK    6  A    between atoms: C27_29  and  C28_30 
REMARK    7  A    between atoms: C28_30  and  C29_31 
REMARK    8  A    between atoms: C29_31  and  O4_33 
ROOT
HETATM    1  C1  UNL     1     -18.535  46.393 -22.244  1.00  0.00     0.025 C 
HETATM    2  C2  UNL     1     -17.966  46.129 -23.427  1.00  0.00     0.015 C 
HETATM    3  C3  UNL     1     -18.537  46.591 -24.718  1.00  0.00     0.289 C 
HETATM    4  O1  UNL     1     -19.420  47.418 -24.863  1.00  0.00    -0.260 OA
HETATM    5  O2  UNL     1     -17.874  45.938 -25.721  1.00  0.00    -0.311 OA
HETATM    6  C4  UNL     1     -17.116  44.876 -25.135  1.00  0.00     0.142 C 
HETATM    7  C5  UNL     1     -15.914  44.466 -25.965  1.00  0.00     0.039 C 
HETATM    8  C6  UNL     1     -14.876  45.588 -26.173  1.00  0.00     0.006 C 
HETATM    9  C7  UNL     1     -14.435  46.219 -24.823  1.00  0.00    -0.027 A 
HETATM   10  C8  UNL     1     -12.926  46.512 -24.587  1.00  0.00     0.011 C 
HETATM   11  C9  UNL     1     -11.920  46.266 -25.718  1.00  0.00     0.011 C 
HETATM   12  C10 UNL     1     -12.570  46.223 -27.097  1.00  0.00    -0.032 C 
HETATM   13  C11 UNL     1     -13.106  47.635 -27.438  1.00  0.00     0.016 C 
HETATM   14  C12 UNL     1     -11.643  45.700 -28.238  1.00  0.00    -0.002 C 
HETATM   15  C21 UNL     1     -12.619  45.050 -29.243  1.00  0.00     0.006 C 
HETATM   16  C22 UNL     1     -13.986  44.945 -28.537  1.00  0.00     0.011 C 
HETATM   17  C23 UNL     1     -13.674  45.112 -27.039  1.00  0.00    -0.032 C 
HETATM   18  C24 UNL     1     -13.163  43.730 -26.515  1.00  0.00     0.016 C 
HETATM   19  C25 UNL     1     -15.302  47.382 -24.347  1.00  0.00     0.022 A 
HETATM   20  C26 UNL     1     -15.409  46.074 -23.607  1.00  0.00    -0.021 A 
HETATM   21  C31 UNL     1     -16.748  45.318 -23.728  1.00  0.00     0.063 C 
ENDROOT
BRANCH  14  22
HETATM   22  C13 UNL     1     -10.479  46.572 -28.798  1.00  0.00    -0.014 C 
HETATM   23  C14 UNL     1     -11.072  47.814 -29.493  1.00  0.00     0.010 C 
BRANCH  22  24
HETATM   24  C15 UNL     1      -9.254  46.958 -27.927  1.00  0.00     0.008 C 
BRANCH  24  25
HETATM   25  C16 UNL     1      -7.974  46.110 -27.902  1.00  0.00     0.028 C 
BRANCH  25  26
HETATM   26  C17 UNL     1      -7.087  46.301 -29.096  1.00  0.00    -0.025 C 
HETATM   27  C18 UNL     1      -6.033  47.130 -29.226  1.00  0.00    -0.091 C 
HETATM   28  C19 UNL     1      -5.472  47.999 -28.136  1.00  0.00     0.042 C 
HETATM   29  C20 UNL     1      -5.316  47.240 -30.547  1.00  0.00     0.042 C 
ENDBRANCH  25  26
ENDBRANCH  24  25
ENDBRANCH  22  24
ENDBRANCH  14  22
BRANCH  20  30
HETATM   30  C27 UNL     1     -14.819  46.037 -22.193  1.00  0.00     0.021 C 
BRANCH  30  31
HETATM   31  C28 UNL     1     -14.988  47.365 -21.456  1.00  0.00     0.112 C 
BRANCH  31  32
HETATM   32  C29 UNL     1     -15.306  47.131 -20.003  1.00  0.00     0.258 C 
HETATM   33  O3  UNL     1     -16.403  47.337 -19.497  1.00  0.00    -0.265 OA
BRANCH  32  34
HETATM   34  O4  UNL     1     -14.209  46.669 -19.342  1.00  0.00    -0.326 OA
HETATM   35  C30 UNL     1     -13.834  47.466 -18.214  1.00  0.00     0.213 C 
ENDBRANCH  32  34
ENDBRANCH  31  32
ENDBRANCH  30  31
ENDBRANCH  20  30
TORSDOF 8
ENDMDL
