MODEL 1
REMARK minimizedAffinity -9.3365469
REMARK  9 active torsions:
REMARK  status: ('A' for Active; 'I' for Inactive)
REMARK    1  A    between atoms: C12_14  and  C13_15 
REMARK    2  A    between atoms: C13_15  and  C15_17 
REMARK    3  A    between atoms: C15_17  and  C16_18 
REMARK    4  A    between atoms: C16_18  and  C17_19 
REMARK    5  A    between atoms: C18_20  and  C20_22 
REMARK    6  A    between atoms: C26_29  and  C27_30 
REMARK    7  A    between atoms: C27_30  and  C28_31 
REMARK    8  A    between atoms: C28_31  and  C29_32 
REMARK    9  A    between atoms: C29_32  and  O5_34 
ROOT
HETATM    1  C1  UNL     1       1.056  54.201 -23.737  1.00  0.00     0.025 C 
HETATM    2  C2  UNL     1       0.694  53.206 -22.916  1.00  0.00     0.015 C 
HETATM    3  C3  UNL     1       0.918  53.288 -21.457  1.00  0.00     0.289 C 
HETATM    4  O1  UNL     1       1.529  54.159 -20.867  1.00  0.00    -0.260 OA
HETATM    5  O2  UNL     1       0.336  52.204 -20.884  1.00  0.00    -0.311 OA
HETATM    6  C4  UNL     1      -0.460  51.485 -21.847  1.00  0.00     0.142 C 
HETATM    7  C5  UNL     1      -1.926  51.777 -21.558  1.00  0.00     0.039 C 
HETATM    8  C6  UNL     1      -2.927  51.263 -22.603  1.00  0.00     0.006 C 
HETATM    9  C7  UNL     1      -2.476  51.521 -24.061  1.00  0.00    -0.027 A 
HETATM   10  C8  UNL     1      -3.416  50.939 -25.137  1.00  0.00     0.011 C 
HETATM   11  C9  UNL     1      -3.982  49.541 -24.844  1.00  0.00     0.011 C 
HETATM   12  C10 UNL     1      -4.570  49.458 -23.428  1.00  0.00    -0.032 C 
HETATM   13  C11 UNL     1      -5.766  50.447 -23.339  1.00  0.00     0.016 C 
HETATM   14  C12 UNL     1      -5.033  48.050 -22.923  1.00  0.00    -0.002 C 
HETATM   15  C21 UNL     1      -4.852  48.149 -21.376  1.00  0.00     0.006 C 
HETATM   16  C22 UNL     1      -4.041  49.426 -21.088  1.00  0.00     0.011 C 
HETATM   17  C23 UNL     1      -3.381  49.779 -22.429  1.00  0.00    -0.032 C 
HETATM   18  C24 UNL     1      -2.150  48.830 -22.590  1.00  0.00     0.016 C 
HETATM   19  C25 UNL     1      -2.037  52.928 -24.391  1.00  0.00     0.022 A 
HETATM   20  C26 UNL     1      -0.978  51.838 -24.364  1.00  0.00    -0.021 A 
HETATM   21  C30 UNL     1       0.048  51.894 -23.222  1.00  0.00     0.063 C 
ENDROOT
BRANCH  14  22
HETATM   22  C13 UNL     1      -6.376  47.376 -23.345  1.00  0.00    -0.014 C 
HETATM   23  C14 UNL     1      -7.393  47.084 -22.231  1.00  0.00     0.010 C 
BRANCH  22  24
HETATM   24  C15 UNL     1      -7.113  48.081 -24.506  1.00  0.00     0.008 C 
BRANCH  24  25
HETATM   25  C16 UNL     1      -7.196  47.254 -25.792  1.00  0.00     0.028 C 
BRANCH  25  26
HETATM   26  C17 UNL     1      -6.256  47.791 -26.838  1.00  0.00    -0.017 C 
HETATM   27  C18 UNL     1      -6.167  47.397 -28.122  1.00  0.00    -0.028 C 
HETATM   28  C19 UNL     1      -7.000  46.366 -28.818  1.00  0.00     0.051 C 
BRANCH  27  29
HETATM   29  C20 UNL     1      -5.137  48.069 -28.966  1.00  0.00     0.265 C 
HETATM   30  O3  UNL     1      -4.010  48.322 -28.558  1.00  0.00    -0.302 OA
ENDBRANCH  27  29
ENDBRANCH  25  26
ENDBRANCH  24  25
ENDBRANCH  22  24
ENDBRANCH  14  22
BRANCH  20  31
HETATM   31  C27 UNL     1      -0.372  51.303 -25.672  1.00  0.00     0.021 C 
BRANCH  31  32
HETATM   32  C28 UNL     1       0.639  52.218 -26.353  1.00  0.00     0.111 C 
BRANCH  32  33
HETATM   33  C29 UNL     1      -0.047  53.068 -27.382  1.00  0.00     0.139 C 
HETATM   34  O4  UNL     1      -0.442  54.210 -27.224  1.00  0.00    -0.650 OA
BRANCH  33  35
HETATM   35  O5  UNL     1      -0.175  52.450 -28.570  1.00  0.00    -0.776 OA
HETATM   36  H41 UNL     1      -0.628  53.110 -29.136  1.00  0.00     0.167 HD
ENDBRANCH  33  35
ENDBRANCH  32  33
ENDBRANCH  31  32
ENDBRANCH  20  31
TORSDOF 9
ENDMDL
