MODEL 1
REMARK minimizedAffinity -6.60197306
REMARK CNNscore 0.745545149
REMARK CNNaffinity 6.55102777
REMARK  10 active torsions:
REMARK  status: ('A' for Active; 'I' for Inactive)
REMARK    1  A    between atoms: C4_4  and  C5_5 
REMARK    2  A    between atoms: C5_5  and  O2_7 
REMARK    3  A    between atoms: O2_7  and  C6_8 
REMARK    4  A    between atoms: C6_8  and  C7_9 
REMARK    5  A    between atoms: C7_9  and  N1_10 
REMARK    6  A    between atoms: C20_24  and  O4_25 
REMARK    7  A    between atoms: O4_25  and  C21_26 
REMARK    8  A    between atoms: C21_26  and  C22_28 
REMARK    9  A    between atoms: C22_28  and  C23_29 
REMARK   10  A    between atoms: C23_29  and  O6_32 
ROOT
HETATM    1  C1  UNL     1       7.230  51.617  -7.030  1.00  0.00     0.015 C 
HETATM    2  C2  UNL     1       7.301  51.502  -8.562  1.00  0.00     0.022 C 
HETATM    3  C3  UNL     1       7.056  50.055  -8.989  1.00  0.00    -0.070 C 
HETATM    4  C4  UNL     1       8.044  49.148  -8.836  1.00  0.00     0.085 C 
HETATM    5  C10 UNL     1       5.709  49.769  -9.617  1.00  0.00     0.035 C 
HETATM    6  C11 UNL     1       4.559  50.610  -9.044  1.00  0.00     0.010 C 
HETATM    7  C12 UNL     1       4.850  52.128  -8.910  1.00  0.00     0.006 C 
HETATM    8  C13 UNL     1       6.316  52.436  -9.303  1.00  0.00     0.068 C 
HETATM    9  C14 UNL     1       6.653  53.911  -9.133  1.00  0.00     0.132 C 
HETATM   10  O3  UNL     1       7.730  54.295  -8.677  1.00  0.00    -0.298 OA
HETATM   11  C15 UNL     1       5.652  54.907  -9.684  1.00  0.00     0.085 C 
HETATM   12  C16 UNL     1       4.240  54.558  -9.187  1.00  0.00     0.011 C 
HETATM   13  C17 UNL     1       3.151  55.677  -9.394  1.00  0.00    -0.016 C 
HETATM   14  C18 UNL     1       2.983  56.079 -10.874  1.00  0.00     0.018 C 
HETATM   15  C19 UNL     1       3.612  56.967  -8.657  1.00  0.00     0.018 C 
HETATM   16  C20 UNL     1       1.794  55.241  -8.723  1.00  0.00     0.140 C 
HETATM   17  C26 UNL     1       1.817  53.815  -8.156  1.00  0.00     0.034 C 
HETATM   18  C27 UNL     1       2.360  52.806  -9.160  1.00  0.00     0.012 C 
HETATM   19  C28 UNL     1       3.820  53.096  -9.623  1.00  0.00    -0.035 C 
HETATM   20  C29 UNL     1       3.877  52.853 -11.152  1.00  0.00     0.016 C 
ENDROOT
BRANCH   4  21
HETATM   21  C5  UNL     1       8.022  47.726  -9.260  1.00  0.00     0.283 C 
HETATM   22  O1  UNL     1       7.098  47.147  -9.800  1.00  0.00    -0.260 OA
BRANCH  21  23
HETATM   23  O2  UNL     1       9.233  47.198  -8.949  1.00  0.00    -0.316 OA
BRANCH  23  24
HETATM   24  C6  UNL     1      10.343  47.651  -9.749  1.00  0.00     0.209 C 
BRANCH  24  25
HETATM   25  C7  UNL     1      10.425  46.843 -11.054  1.00  0.00     0.298 C 
BRANCH  25  26
HETATM   26  N1  UNL     1      10.654  45.400 -10.857  1.00  0.00     0.082 N 
HETATM   27  C8  UNL     1      11.771  45.191  -9.929  1.00  0.00     0.309 C 
HETATM   28  C9  UNL     1      10.931  44.710 -12.120  1.00  0.00     0.309 C 
ENDBRANCH  25  26
ENDBRANCH  24  25
ENDBRANCH  23  24
ENDBRANCH  21  23
ENDBRANCH   4  21
BRANCH  16  29
HETATM   29  O4  UNL     1       0.687  55.300  -9.654  1.00  0.00    -0.315 OA
BRANCH  29  30
HETATM   30  C21 UNL     1      -0.544  55.570  -9.125  1.00  0.00     0.262 C 
HETATM   31  O5  UNL     1      -0.742  55.939  -7.979  1.00  0.00    -0.265 OA
BRANCH  30  32
HETATM   32  C22 UNL     1      -1.594  55.414 -10.204  1.00  0.00     0.148 C 
BRANCH  32  33
HETATM   33  C23 UNL     1      -2.156  53.992 -10.366  1.00  0.00     0.059 C 
HETATM   34  C24 UNL     1      -1.736  53.145  -9.158  1.00  0.00     0.045 C 
HETATM   35  C25 UNL     1      -3.682  53.972 -10.487  1.00  0.00     0.045 C 
BRANCH  33  36
HETATM   36  O6  UNL     1      -1.614  53.352 -11.520  1.00  0.00    -0.390 OA
HETATM   37  H40 UNL     1      -0.643  53.394 -11.482  1.00  0.00     0.210 HD
ENDBRANCH  33  36
ENDBRANCH  32  33
ENDBRANCH  30  32
ENDBRANCH  29  30
ENDBRANCH  16  29
TORSDOF 10
ENDMDL
