MODEL 1
REMARK minimizedAffinity -9.83261204
REMARK CNNscore 0.811920822
REMARK CNNaffinity 7.75886488
REMARK  12 active torsions:
REMARK  status: ('A' for Active; 'I' for Inactive)
REMARK    1  A    between atoms: C19_21  and  O3_22 
REMARK    2  A    between atoms: C19_21  and  C20_23 
REMARK    3  A    between atoms: C20_23  and  C21_25 
REMARK    4  A    between atoms: C21_25  and  O5_26 
REMARK    5  A    between atoms: O5_26  and  C22_27 
REMARK    6  A    between atoms: C22_27  and  C23_29 
REMARK    7  A    between atoms: C23_29  and  C24_30 
REMARK    8  A    between atoms: C24_30  and  C25_31 
REMARK       I    between atoms: C25_31  and  N1_33 
REMARK    9  A    between atoms: N1_33  and  C26_34 
REMARK   10  A    between atoms: C26_34  and  C27_35 
REMARK   11  A    between atoms: C27_35  and  C28_36 
REMARK   12  A    between atoms: C31_39  and  O8_40 
ROOT
HETATM    1  C1  UNL     1      -0.577  49.948 -21.142  1.00  0.00     0.021 C 
HETATM    2  C2  UNL     1      -1.266  51.337 -21.081  1.00  0.00    -0.009 C 
HETATM    3  C3  UNL     1      -0.469  52.335 -21.981  1.00  0.00     0.022 C 
HETATM    4  C4  UNL     1       0.899  52.705 -21.425  1.00  0.00     0.084 C 
HETATM    5  C5  UNL     1       0.760  53.260 -20.032  1.00  0.00     0.149 C 
HETATM    6  O1  UNL     1       1.538  54.090 -19.572  1.00  0.00    -0.293 OA
HETATM    7  C6  UNL     1      -0.301  52.696 -19.164  1.00  0.00     0.053 C 
HETATM    8  C7  UNL     1      -1.186  51.789 -19.617  1.00  0.00    -0.067 C 
HETATM    9  C8  UNL     1      -2.109  51.129 -18.620  1.00  0.00     0.035 C 
HETATM   10  C9  UNL     1      -3.279  50.368 -19.246  1.00  0.00     0.010 C 
HETATM   11  C10 UNL     1      -3.831  51.120 -20.455  1.00  0.00     0.003 C 
HETATM   12  C11 UNL     1      -2.770  51.328 -21.588  1.00  0.00     0.072 C 
HETATM   13  C12 UNL     1      -2.981  50.464 -22.855  1.00  0.00     0.133 C 
HETATM   14  O2  UNL     1      -2.058  50.197 -23.627  1.00  0.00    -0.297 OA
HETATM   15  C13 UNL     1      -4.392  50.073 -23.253  1.00  0.00     0.091 C 
HETATM   16  C14 UNL     1      -5.169  49.535 -22.054  1.00  0.00     0.005 C 
HETATM   17  C15 UNL     1      -4.525  48.219 -21.565  1.00  0.00     0.019 C 
HETATM   18  C16 UNL     1      -5.191  50.654 -20.994  1.00  0.00     0.002 C 
HETATM   19  C17 UNL     1      -6.284  50.220 -20.014  1.00  0.00     0.009 C 
HETATM   20  C18 UNL     1      -7.295  49.424 -20.866  1.00  0.00     0.047 C 
HETATM   21  C19 UNL     1      -6.703  49.355 -22.286  1.00  0.00     0.128 C 
ENDROOT
BRANCH  21  22
HETATM   22  O3  UNL     1      -7.212  50.504 -22.993  1.00  0.00    -0.381 OA
HETATM   23  H25 UNL     1      -7.157  50.293 -23.949  1.00  0.00     0.211 HD
ENDBRANCH  21  22
BRANCH  21  24
HETATM   24  C20 UNL     1      -7.088  48.140 -23.150  1.00  0.00     0.185 C 
HETATM   25  O4  UNL     1      -7.727  47.217 -22.625  1.00  0.00    -0.292 OA
BRANCH  24  26
HETATM   26  C21 UNL     1      -6.686  48.106 -24.622  1.00  0.00     0.260 C 
BRANCH  26  27
HETATM   27  O5  UNL     1      -7.266  46.998 -25.317  1.00  0.00    -0.314 OA
BRANCH  27  28
HETATM   28  C22 UNL     1      -7.311  47.157 -26.671  1.00  0.00     0.259 C 
HETATM   29  O6  UNL     1      -8.063  46.545 -27.417  1.00  0.00    -0.265 OA
BRANCH  28  30
HETATM   30  C23 UNL     1      -6.286  48.168 -27.110  1.00  0.00     0.120 C 
BRANCH  30  31
HETATM   31  C24 UNL     1      -4.953  47.911 -26.419  1.00  0.00     0.112 C 
BRANCH  31  32
HETATM   32  C25 UNL     1      -3.812  48.641 -27.086  1.00  0.00     0.218 C 
HETATM   33  O7  UNL     1      -2.868  48.078 -27.629  1.00  0.00    -0.274 OA
HETATM   34  N1  UNL     1      -3.950  50.010 -27.021  1.00  0.00    -0.361 N 
HETATM   35  H32 UNL     1      -4.791  50.403 -26.617  1.00  0.00     0.162 HD
BRANCH  34  36
HETATM   36  C26 UNL     1      -2.995  50.916 -27.634  1.00  0.00     0.127 C 
BRANCH  36  37
HETATM   37  C27 UNL     1      -2.307  51.815 -26.604  1.00  0.00     0.058 C 
BRANCH  37  38
HETATM   38  C28 UNL     1      -0.807  51.797 -26.758  1.00  0.00    -0.057 A 
HETATM   39  C29 UNL     1      -0.225  51.707 -28.032  1.00  0.00     0.010 A 
HETATM   40  C30 UNL     1       1.163  51.715 -28.179  1.00  0.00     0.037 A 
HETATM   41  C31 UNL     1       1.970  51.815 -27.050  1.00  0.00     0.065 A 
HETATM   42  C32 UNL     1       1.412  51.909 -25.781  1.00  0.00     0.037 A 
HETATM   43  C33 UNL     1       0.024  51.901 -25.633  1.00  0.00     0.010 A 
BRANCH  41  44
HETATM   44  O8  UNL     1       3.330  51.827 -27.148  1.00  0.00    -0.361 OA
HETATM   45  H39 UNL     1       3.574  51.718 -28.083  1.00  0.00     0.217 HD
ENDBRANCH  41  44
ENDBRANCH  37  38
ENDBRANCH  36  37
ENDBRANCH  34  36
ENDBRANCH  31  32
ENDBRANCH  30  31
ENDBRANCH  28  30
ENDBRANCH  27  28
ENDBRANCH  26  27
ENDBRANCH  24  26
ENDBRANCH  21  24
TORSDOF 12
ENDMDL
