MODEL 1
REMARK minimizedAffinity -9.60054111
REMARK  8 active torsions:
REMARK  status: ('A' for Active; 'I' for Inactive)
REMARK    1  A    between atoms: C2_2  and  C30_33 
REMARK    2  A    between atoms: C3_3  and  C4_4 
REMARK    3  A    between atoms: C4_4  and  C5_5 
REMARK    4  A    between atoms: C5_5  and  C6_6 
REMARK    5  A    between atoms: C6_6  and  C8_8 
REMARK    6  A    between atoms: C15_15  and  O1_16 
REMARK    7  A    between atoms: C23_24  and  O2_25 
REMARK    8  A    between atoms: C30_33  and  O4_34 
ROOT
HETATM    1  C8  UNL     1      -0.981  50.437 -22.205  1.00  0.00    -0.002 C 
HETATM    2  C9  UNL     1      -0.965  50.028 -20.708  1.00  0.00     0.007 C 
HETATM    3  C10 UNL     1      -2.251  49.230 -20.431  1.00  0.00     0.015 C 
HETATM    4  C11 UNL     1      -2.807  48.870 -21.822  1.00  0.00    -0.005 C 
HETATM    5  C12 UNL     1      -2.042  47.599 -22.304  1.00  0.00     0.021 C 
HETATM    6  C13 UNL     1      -4.280  48.522 -22.001  1.00  0.00     0.002 C 
HETATM    7  C14 UNL     1      -4.932  48.758 -23.174  1.00  0.00    -0.032 C 
HETATM    8  C15 UNL     1      -4.206  49.471 -24.331  1.00  0.00     0.149 C 
HETATM    9  C16 UNL     1      -2.747  49.934 -24.088  1.00  0.00     0.047 C 
HETATM   10  C17 UNL     1      -2.473  50.200 -22.601  1.00  0.00    -0.026 C 
HETATM   11  C18 UNL     1      -3.329  51.421 -22.133  1.00  0.00     0.016 C 
HETATM   12  C19 UNL     1      -6.427  48.336 -23.404  1.00  0.00    -0.013 C 
HETATM   13  C20 UNL     1      -7.271  49.618 -23.190  1.00  0.00     0.021 C 
HETATM   14  C21 UNL     1      -6.633  47.768 -24.844  1.00  0.00     0.017 C 
HETATM   15  C22 UNL     1      -7.644  46.624 -24.999  1.00  0.00     0.033 C 
HETATM   16  C23 UNL     1      -8.789  46.670 -23.997  1.00  0.00     0.126 C 
HETATM   17  C24 UNL     1      -8.273  46.596 -22.529  1.00  0.00    -0.017 C 
HETATM   18  C25 UNL     1      -8.174  45.089 -22.150  1.00  0.00     0.018 C 
HETATM   19  C26 UNL     1      -9.307  47.205 -21.556  1.00  0.00     0.018 C 
HETATM   20  C27 UNL     1      -6.819  47.207 -22.391  1.00  0.00     0.015 C 
HETATM   21  C28 UNL     1      -6.469  47.625 -20.964  1.00  0.00     0.090 C 
HETATM   22  C29 UNL     1      -4.986  47.858 -20.857  1.00  0.00     0.157 C 
HETATM   23  O3  UNL     1      -4.381  47.516 -19.842  1.00  0.00    -0.293 OA
ENDROOT
BRANCH   1  24
HETATM   24  C6  UNL     1      -0.332  51.834 -22.429  1.00  0.00    -0.014 C 
HETATM   25  C7  UNL     1      -0.043  52.573 -21.118  1.00  0.00     0.010 C 
BRANCH  24  26
HETATM   26  C5  UNL     1      -1.170  52.744 -23.374  1.00  0.00     0.008 C 
BRANCH  26  27
HETATM   27  C4  UNL     1      -0.546  53.006 -24.752  1.00  0.00     0.028 C 
BRANCH  27  28
HETATM   28  C3  UNL     1       0.733  52.270 -25.073  1.00  0.00    -0.022 C 
HETATM   29  C2  UNL     1       1.204  51.797 -26.246  1.00  0.00    -0.064 C 
HETATM   30  C1  UNL     1       0.450  51.837 -27.546  1.00  0.00     0.045 C 
BRANCH  29  31
HETATM   31  C30 UNL     1       2.555  51.122 -26.304  1.00  0.00     0.197 C 
BRANCH  31  32
HETATM   32  O4  UNL     1       3.289  51.577 -27.431  1.00  0.00    -0.397 OA
HETATM   33  H48 UNL     1       2.664  51.938 -28.081  1.00  0.00     0.209 HD
ENDBRANCH  31  32
ENDBRANCH  29  31
ENDBRANCH  27  28
ENDBRANCH  26  27
ENDBRANCH  24  26
ENDBRANCH   1  24
BRANCH   8  34
HETATM   34  O1  UNL     1      -4.962  50.624 -24.690  1.00  0.00    -0.391 OA
HETATM   35  H22 UNL     1      -4.589  50.977 -25.515  1.00  0.00     0.210 HD
ENDBRANCH   8  34
BRANCH  16  36
HETATM   36  O2  UNL     1      -9.559  47.844 -24.234  1.00  0.00    -0.395 OA
HETATM   37  H36 UNL     1      -9.896  47.801 -25.145  1.00  0.00     0.210 HD
ENDBRANCH  16  36
TORSDOF 8
ENDMDL
