MODEL 1
REMARK minimizedAffinity -8.63997078
REMARK  12 active torsions:
REMARK  status: ('A' for Active; 'I' for Inactive)
REMARK    1  A    between atoms: C3_3  and  O1_4 
REMARK    2  A    between atoms: O1_4  and  C4_5 
REMARK    3  A    between atoms: C5_7  and  C6_8 
REMARK    4  A    between atoms: C6_8  and  O3_9 
REMARK    5  A    between atoms: C7_10  and  O4_11 
REMARK    6  A    between atoms: C8_12  and  O5_13 
REMARK    7  A    between atoms: C9_14  and  O6_15 
REMARK    8  A    between atoms: C10_16  and  O7_17 
REMARK    9  A    between atoms: C15_22  and  O8_23 
REMARK   10  A    between atoms: C15_22  and  C16_24 
REMARK   11  A    between atoms: C17_25  and  C18_26 
REMARK   12  A    between atoms: C18_26  and  O9_28 
ROOT
HETATM    1  C1  UNL     1       1.972  66.020 -36.220  1.00  0.00     0.016 C 
HETATM    2  C2  UNL     1       3.334  66.690 -36.504  1.00  0.00     0.052 C 
HETATM    3  C3  UNL     1       4.158  66.840 -35.202  1.00  0.00     0.160 C 
HETATM    4  C10 UNL     1       5.473  67.629 -35.403  1.00  0.00     0.148 C 
HETATM    5  C11 UNL     1       5.322  68.873 -36.279  1.00  0.00     0.046 C 
HETATM    6  C12 UNL     1       4.637  68.612 -37.635  1.00  0.00    -0.010 C 
HETATM    7  C13 UNL     1       4.572  69.962 -38.398  1.00  0.00     0.018 C 
HETATM    8  C14 UNL     1       5.527  67.684 -38.501  1.00  0.00     0.018 C 
HETATM    9  C15 UNL     1       3.211  67.983 -37.375  1.00  0.00     0.088 C 
ENDROOT
BRANCH   3  10
HETATM   10  O1  UNL     1       4.382  65.492 -34.737  1.00  0.00    -0.350 OA
BRANCH  10  11
HETATM   11  C4  UNL     1       5.033  65.354 -33.484  1.00  0.00     0.292 C 
HETATM   12  O2  UNL     1       6.273  64.656 -33.602  1.00  0.00    -0.348 OA
HETATM   13  C5  UNL     1       6.186  63.296 -34.069  1.00  0.00     0.179 C 
HETATM   14  C7  UNL     1       4.814  62.637 -33.860  1.00  0.00     0.180 C 
HETATM   15  C8  UNL     1       4.268  63.108 -32.517  1.00  0.00     0.183 C 
HETATM   16  C9  UNL     1       4.080  64.629 -32.498  1.00  0.00     0.204 C 
BRANCH  13  17
HETATM   17  C6  UNL     1       6.707  63.153 -35.508  1.00  0.00     0.198 C 
BRANCH  17  18
HETATM   18  O3  UNL     1       5.659  63.055 -36.466  1.00  0.00    -0.398 OA
HETATM   19  H10 UNL     1       6.079  62.878 -37.326  1.00  0.00     0.209 HD
ENDBRANCH  17  18
ENDBRANCH  13  17
BRANCH  14  20
HETATM   20  O4  UNL     1       4.944  61.208 -33.842  1.00  0.00    -0.390 OA
HETATM   21  H12 UNL     1       4.097  60.890 -33.467  1.00  0.00     0.210 HD
ENDBRANCH  14  20
BRANCH  15  22
HETATM   22  O5  UNL     1       3.028  62.434 -32.238  1.00  0.00    -0.390 OA
HETATM   23  H14 UNL     1       2.658  62.861 -31.441  1.00  0.00     0.210 HD
ENDBRANCH  15  22
BRANCH  16  24
HETATM   24  O6  UNL     1       4.289  65.072 -31.139  1.00  0.00    -0.388 OA
HETATM   25  H16 UNL     1       5.252  65.056 -30.981  1.00  0.00     0.210 HD
ENDBRANCH  16  24
ENDBRANCH  10  11
ENDBRANCH   3  10
BRANCH   4  26
HETATM   26  O7  UNL     1       5.987  68.080 -34.138  1.00  0.00    -0.393 OA
HETATM   27  H18 UNL     1       5.388  68.757 -33.784  1.00  0.00     0.210 HD
ENDBRANCH   4  26
BRANCH   9  28
HETATM   28  O8  UNL     1       2.673  67.530 -38.634  1.00  0.00    -0.385 OA
HETATM   29  H27 UNL     1       2.684  68.270 -39.260  1.00  0.00     0.211 HD
ENDBRANCH   9  28
BRANCH   9  30
HETATM   30  C16 UNL     1       2.210  69.032 -36.903  1.00  0.00     0.010 C 
HETATM   31  C17 UNL     1       1.102  68.911 -36.147  1.00  0.00     0.003 C 
BRANCH  31  32
HETATM   32  C18 UNL     1       0.191  70.039 -35.733  1.00  0.00     0.136 C 
HETATM   33  C19 UNL     1      -1.054  70.081 -36.607  1.00  0.00     0.043 C 
BRANCH  32  34
HETATM   34  O9  UNL     1      -0.214  69.896 -34.378  1.00  0.00    -0.392 OA
HETATM   35  H34 UNL     1       0.599  69.921 -33.842  1.00  0.00     0.210 HD
ENDBRANCH  32  34
ENDBRANCH  31  32
ENDBRANCH   9  30
TORSDOF 12
ENDMDL
