MODEL 1
REMARK minimizedAffinity -7.49634361
REMARK  9 active torsions:
REMARK  status: ('A' for Active; 'I' for Inactive)
REMARK    1  A    between atoms: C11_11  and  C12_12 
REMARK    2  A    between atoms: C12_12  and  O1_13 
REMARK    3  A    between atoms: C12_12  and  C13_14 
REMARK    4  A    between atoms: C17_19  and  C18_20 
REMARK    5  A    between atoms: C19_21  and  C20_22 
REMARK    6  A    between atoms: C20_22  and  O4_24 
REMARK    7  A    between atoms: C21_25  and  C22_26 
REMARK    8  A    between atoms: C22_26  and  C23_28 
REMARK    9  A    between atoms: C23_28  and  O6_30 
ROOT
HETATM    1  C1  UNL     1      -2.903   3.948  12.722  1.00  0.00     0.048 C 
HETATM    2  C2  UNL     1      -2.641   5.305  13.304  1.00  0.00    -0.065 C 
HETATM    3  C3  UNL     1      -3.577   6.278  13.346  1.00  0.00    -0.015 C 
HETATM    4  C4  UNL     1      -3.324   7.621  14.007  1.00  0.00     0.014 C 
HETATM    5  C5  UNL     1      -4.627   8.374  14.300  1.00  0.00     0.009 C 
HETATM    6  C6  UNL     1      -4.347   9.552  15.224  1.00  0.00     0.001 C 
HETATM    7  C7  UNL     1      -3.236  10.452  14.693  1.00  0.00     0.005 C 
HETATM    8  C8  UNL     1      -1.943   9.690  14.294  1.00  0.00    -0.013 C 
HETATM    9  C9  UNL     1      -0.928  10.744  13.866  1.00  0.00     0.010 C 
HETATM   10  C10 UNL     1      -2.296   8.570  13.262  1.00  0.00     0.008 C 
HETATM   11  C11 UNL     1      -1.150   7.722  12.608  1.00  0.00     0.059 C 
HETATM   12  C21 UNL     1      -0.606   6.674  13.597  1.00  0.00    -0.002 C 
HETATM   13  C25 UNL     1      -1.297   5.536  13.839  1.00  0.00     0.018 C 
ENDROOT
BRANCH  11  14
HETATM   14  C12 UNL     1      -0.080   8.336  11.643  1.00  0.00     0.166 C 
BRANCH  14  15
HETATM   15  O1  UNL     1       1.050   8.720  12.491  1.00  0.00    -0.391 OA
HETATM   16  H19 UNL     1       1.525   7.907  12.727  1.00  0.00     0.210 HD
ENDBRANCH  14  15
BRANCH  14  17
HETATM   17  C13 UNL     1       0.483   7.442  10.460  1.00  0.00     0.111 C 
HETATM   18  C14 UNL     1       0.300   5.937  10.657  1.00  0.00     0.054 C 
HETATM   19  O2  UNL     1      -0.352   7.730   9.287  1.00  0.00    -0.369 OA
HETATM   20  C15 UNL     1       0.425   8.429   8.307  1.00  0.00     0.197 C 
HETATM   21  C16 UNL     1       1.827   8.337   8.770  1.00  0.00     0.009 C 
HETATM   22  C17 UNL     1       1.883   7.786   9.985  1.00  0.00    -0.023 C 
BRANCH  22  23
HETATM   23  C18 UNL     1       3.089   7.468  10.708  1.00  0.00     0.017 C 
HETATM   24  C19 UNL     1       4.069   6.686  10.233  1.00  0.00     0.082 C 
BRANCH  24  25
HETATM   25  C20 UNL     1       5.281   6.472  11.033  1.00  0.00     0.165 C 
HETATM   26  O3  UNL     1       6.403   6.235  10.628  1.00  0.00    -0.647 OA
BRANCH  25  27
HETATM   27  O4  UNL     1       4.991   6.559  12.340  1.00  0.00    -0.773 OA
HETATM   28  H28 UNL     1       5.853   6.415  12.784  1.00  0.00     0.167 HD
ENDBRANCH  25  27
ENDBRANCH  24  25
ENDBRANCH  22  23
ENDBRANCH  14  17
ENDBRANCH  11  14
BRANCH  12  29
HETATM   29  C22 UNL     1       0.689   6.962  14.295  1.00  0.00     0.184 C 
HETATM   30  O5  UNL     1       1.753   6.562  13.812  1.00  0.00    -0.290 OA
BRANCH  29  31
HETATM   31  C23 UNL     1       0.710   7.771  15.598  1.00  0.00     0.188 C 
HETATM   32  C24 UNL     1       1.721   8.902  15.509  1.00  0.00     0.048 C 
BRANCH  31  33
HETATM   33  O6  UNL     1       1.106   6.927  16.682  1.00  0.00    -0.388 OA
HETATM   34  H33 UNL     1       1.683   6.241  16.288  1.00  0.00     0.210 HD
ENDBRANCH  31  33
ENDBRANCH  29  31
ENDBRANCH  12  29
TORSDOF 9
ENDMDL
