MODEL 1
REMARK minimizedAffinity -8.28339672
REMARK CNNscore 0.656051815
REMARK CNNaffinity 7.95017481
REMARK  13 active torsions:
REMARK  status: ('A' for Active; 'I' for Inactive)
REMARK    1  A    between atoms: O1_2  and  C2_3 
REMARK    2  A    between atoms: C2_3  and  C3_4 
REMARK    3  A    between atoms: C2_3  and  C33_42 
REMARK    4  A    between atoms: C3_4  and  C5_6 
REMARK    5  A    between atoms: C8_10  and  O3_11 
REMARK    6  A    between atoms: C12_15  and  C14_17 
REMARK    7  A    between atoms: C17_20  and  C19_22 
REMARK    8  A    between atoms: C20_24  and  C21_25 
REMARK    9  A    between atoms: C22_27  and  O6_28 
REMARK   10  A    between atoms: C22_27  and  C23_29 
REMARK   11  A    between atoms: C23_29  and  O7_30 
REMARK   12  A    between atoms: C33_42  and  C35_44 
REMARK   13  A    between atoms: C35_44  and  O11_46 
ROOT
HETATM    1  C5  UNL     1     -14.051   6.917  15.313  1.00  0.00     0.137 C 
HETATM    2  O2  UNL     1     -13.226   7.521  14.302  1.00  0.00    -0.349 OA
HETATM    3  C6  UNL     1     -12.433   8.642  14.668  1.00  0.00     0.167 C 
HETATM    4  C7  UNL     1     -13.299   9.765  15.244  1.00  0.00     0.100 C 
HETATM    5  C8  UNL     1     -14.409   9.277  16.171  1.00  0.00     0.129 C 
HETATM    6  C9  UNL     1     -14.251   7.808  16.556  1.00  0.00     0.040 C 
HETATM    7  C10 UNL     1     -15.288   7.336  17.568  1.00  0.00     0.015 C 
HETATM    8  C11 UNL     1     -11.250   8.207  15.558  1.00  0.00     0.082 C 
HETATM    9  C12 UNL     1      -9.992   8.636  14.796  1.00  0.00     0.009 C 
HETATM   10  C13 UNL     1      -9.580  10.062  15.216  1.00  0.00     0.020 C 
HETATM   11  C32 UNL     1     -10.521   8.638  13.367  1.00  0.00     0.183 C 
HETATM   12  O9  UNL     1     -11.841   9.178  13.463  1.00  0.00    -0.354 OA
ENDROOT
BRANCH   9  13
HETATM   13  C14 UNL     1      -8.802   7.672  14.947  1.00  0.00     0.133 C 
HETATM   14  C15 UNL     1      -8.991   6.521  15.923  1.00  0.00     0.036 C 
HETATM   15  C16 UNL     1      -7.920   5.558  15.458  1.00  0.00     0.043 C 
HETATM   16  C17 UNL     1      -7.919   5.743  13.932  1.00  0.00     0.084 C 
HETATM   17  C18 UNL     1      -8.844   4.715  13.271  1.00  0.00     0.049 C 
HETATM   18  O8  UNL     1      -8.494   7.044  13.691  1.00  0.00    -0.372 OA
BRANCH  16  19
HETATM   19  C19 UNL     1      -6.482   5.716  13.365  1.00  0.00     0.160 C 
HETATM   20  O4  UNL     1      -5.554   6.438  14.208  1.00  0.00    -0.375 OA
HETATM   21  C20 UNL     1      -4.268   5.801  14.113  1.00  0.00     0.152 C 
HETATM   22  C29 UNL     1      -4.383   4.737  13.024  1.00  0.00     0.041 C 
HETATM   23  C30 UNL     1      -5.844   4.342  13.137  1.00  0.00     0.016 C 
HETATM   24  C31 UNL     1      -6.348   3.583  11.921  1.00  0.00     0.012 C 
BRANCH  21  25
HETATM   25  C21 UNL     1      -3.080   6.778  13.934  1.00  0.00     0.158 C 
HETATM   26  O5  UNL     1      -1.989   5.976  13.449  1.00  0.00    -0.345 OA
HETATM   27  C22 UNL     1      -0.743   6.642  13.261  1.00  0.00     0.187 C 
HETATM   28  C24 UNL     1      -0.925   7.772  12.237  1.00  0.00     0.046 C 
HETATM   29  C25 UNL     1       0.353   8.535  11.886  1.00  0.00     0.015 C 
HETATM   30  C26 UNL     1      -2.024   8.729  12.699  1.00  0.00     0.016 C 
HETATM   31  C27 UNL     1      -3.338   7.982  12.992  1.00  0.00     0.014 C 
HETATM   32  C28 UNL     1      -4.344   8.992  13.553  1.00  0.00     0.012 C 
BRANCH  27  33
HETATM   33  O6  UNL     1       0.123   5.658  12.679  1.00  0.00    -0.363 OA
HETATM   34  H34 UNL     1      -0.467   5.155  12.091  1.00  0.00     0.213 HD
ENDBRANCH  27  33
BRANCH  27  35
HETATM   35  C23 UNL     1      -0.100   7.020  14.617  1.00  0.00     0.232 C 
BRANCH  35  36
HETATM   36  O7  UNL     1      -0.256   5.990  15.592  1.00  0.00    -0.396 OA
HETATM   37  H37 UNL     1      -1.184   5.689  15.491  1.00  0.00     0.209 HD
ENDBRANCH  35  36
ENDBRANCH  27  35
ENDBRANCH  21  25
ENDBRANCH  16  19
ENDBRANCH   9  13
BRANCH   1  38
HETATM   38  C3  UNL     1     -15.256   6.252  14.564  1.00  0.00     0.041 C 
HETATM   39  C4  UNL     1     -15.620   4.855  15.068  1.00  0.00     0.015 C 
BRANCH  38  40
HETATM   40  C2  UNL     1     -16.490   7.111  14.113  1.00  0.00     0.141 C 
BRANCH  40  41
HETATM   41  O1  UNL     1     -17.527   6.318  13.529  1.00  0.00    -0.389 OA
HETATM   42  C1  UNL     1     -17.032   5.317  12.645  1.00  0.00     0.202 C 
ENDBRANCH  40  41
BRANCH  40  43
HETATM   43  C33 UNL     1     -16.261   8.392  13.275  1.00  0.00     0.109 C 
HETATM   44  C34 UNL     1     -16.996   9.600  13.877  1.00  0.00     0.024 C 
BRANCH  43  45
HETATM   45  C35 UNL     1     -16.618   8.294  11.816  1.00  0.00     0.145 C 
HETATM   46  O10 UNL     1     -15.826   8.106  10.903  1.00  0.00    -0.650 OA
BRANCH  45  47
HETATM   47  O11 UNL     1     -17.914   8.493  11.534  1.00  0.00    -0.776 OA
HETATM   48  H60 UNL     1     -17.974   8.407  10.561  1.00  0.00     0.167 HD
ENDBRANCH  45  47
ENDBRANCH  43  45
ENDBRANCH  40  43
ENDBRANCH  38  40
ENDBRANCH   1  38
BRANCH   5  49
HETATM   49  O3  UNL     1     -14.411  10.088  17.351  1.00  0.00    -0.395 OA
HETATM   50  H13 UNL     1     -14.637  10.991  17.068  1.00  0.00     0.210 HD
ENDBRANCH   5  49
TORSDOF 13
ENDMDL
