MODEL 1
REMARK minimizedAffinity -6.52779388
REMARK CNNscore 0.413560927
REMARK CNNaffinity 6.32690668
REMARK  0 active torsions:
REMARK  status: ('A' for Active; 'I' for Inactive)
ROOT
HETATM    1  C1  UNL     1      -7.462  21.224   6.756  1.00  0.00     0.023 C 
HETATM    2  C2  UNL     1      -6.832  20.206   7.733  1.00  0.00     0.017 C 
HETATM    3  C3  UNL     1      -6.597  20.993   9.050  1.00  0.00     0.023 C 
HETATM    4  C4  UNL     1      -7.843  19.078   7.980  1.00  0.00     0.135 C 
HETATM    5  O1  UNL     1      -8.575  19.061   8.971  1.00  0.00    -0.297 OA
HETATM    6  C5  UNL     1      -7.998  18.025   6.904  1.00  0.00     0.080 C 
HETATM    7  C6  UNL     1      -6.658  17.470   6.428  1.00  0.00     0.017 C 
HETATM    8  C7  UNL     1      -5.613  18.550   6.002  1.00  0.00    -0.035 C 
HETATM    9  C8  UNL     1      -6.155  19.239   4.725  1.00  0.00     0.016 C 
HETATM   10  C9  UNL     1      -5.483  19.563   7.201  1.00  0.00     0.009 C 
HETATM   11  C10 UNL     1      -4.697  18.950   8.397  1.00  0.00     0.007 C 
HETATM   12  C11 UNL     1      -3.721  17.819   8.099  1.00  0.00     0.011 C 
HETATM   13  C12 UNL     1      -3.075  17.875   6.705  1.00  0.00    -0.032 C 
HETATM   14  C13 UNL     1      -2.317  19.235   6.602  1.00  0.00     0.016 C 
HETATM   15  C14 UNL     1      -4.225  17.796   5.646  1.00  0.00     0.003 C 
HETATM   16  C15 UNL     1      -3.632  18.069   4.237  1.00  0.00     0.006 C 
HETATM   17  C16 UNL     1      -2.262  17.421   3.976  1.00  0.00     0.006 C 
HETATM   18  C17 UNL     1      -1.979  16.246   4.915  1.00  0.00    -0.000 C 
HETATM   19  C18 UNL     1      -0.737  15.396   4.572  1.00  0.00     0.009 C 
HETATM   20  C19 UNL     1      -0.400  15.068   3.112  1.00  0.00     0.067 C 
HETATM   21  C20 UNL     1       1.032  14.480   3.214  1.00  0.00     0.140 C 
HETATM   22  C21 UNL     1       1.545  14.793   4.632  1.00  0.00     0.042 C 
HETATM   23  C22 UNL     1       0.600  15.894   5.146  1.00  0.00    -0.037 C 
HETATM   24  C23 UNL     1       1.102  17.250   4.601  1.00  0.00     0.015 C 
HETATM   25  C24 UNL     1       0.477  15.943   6.672  1.00  0.00     0.010 C 
HETATM   26  C25 UNL     1      -0.650  16.893   7.103  1.00  0.00     0.011 C 
HETATM   27  C26 UNL     1      -2.058  16.619   6.462  1.00  0.00    -0.032 C 
HETATM   28  C27 UNL     1      -2.594  15.330   7.174  1.00  0.00     0.016 C 
HETATM   29  O2  UNL     1       0.951  13.053   3.040  1.00  0.00    -0.313 OA
HETATM   30  C28 UNL     1      -0.301  12.701   2.623  1.00  0.00     0.297 C 
HETATM   31  O3  UNL     1      -0.686  11.566   2.399  1.00  0.00    -0.262 OA
HETATM   32  C29 UNL     1      -1.132  13.913   2.535  1.00  0.00     0.175 A 
HETATM   33  C30 UNL     1      -2.611  13.887   2.250  1.00  0.00     0.218 A 
HETATM   34  O4  UNL     1      -1.661  14.182   1.220  1.00  0.00    -0.364 OA
ENDROOT
TORSDOF 0
ENDMDL
