MODEL 1
REMARK minimizedAffinity -9.25950813
REMARK CNNscore 0.528269768
REMARK CNNaffinity 7.02037621
REMARK  9 active torsions:
REMARK  status: ('A' for Active; 'I' for Inactive)
REMARK    1  A    between atoms: C4_4  and  C5_5 
REMARK    2  A    between atoms: C7_7  and  O1_9 
REMARK    3  A    between atoms: C20_21  and  O2_22 
REMARK    4  A    between atoms: O2_22  and  C21_23 
REMARK    5  A    between atoms: C22_25  and  C23_26 
REMARK    6  A    between atoms: C23_26  and  O4_27 
REMARK    7  A    between atoms: C24_28  and  O5_29 
REMARK    8  A    between atoms: C25_30  and  O6_31 
REMARK    9  A    between atoms: C26_32  and  O7_33 
ROOT
HETATM    1  C5  UNL     1      -5.521   5.650  14.238  1.00  0.00     0.147 C 
HETATM    2  C6  UNL     1      -5.041   6.392  15.508  1.00  0.00     0.074 C 
HETATM    3  C7  UNL     1      -3.542   6.183  15.799  1.00  0.00     0.064 C 
HETATM    4  C8  UNL     1      -3.323   4.783  16.409  1.00  0.00     0.046 C 
HETATM    5  C9  UNL     1      -2.734   6.327  14.492  1.00  0.00     0.058 C 
HETATM    6  C10 UNL     1      -3.626   6.739  13.308  1.00  0.00     0.131 C 
HETATM    7  C11 UNL     1      -2.642   6.932  12.128  1.00  0.00     0.042 C 
HETATM    8  C12 UNL     1      -1.210   6.974  12.770  1.00  0.00    -0.029 C 
HETATM    9  C13 UNL     1      -0.566   5.561  12.512  1.00  0.00     0.016 C 
HETATM   10  C14 UNL     1      -0.227   8.057  12.227  1.00  0.00     0.014 C 
HETATM   11  C15 UNL     1      -0.080   7.999  10.697  1.00  0.00     0.034 C 
HETATM   12  C16 UNL     1       1.285   8.146  10.134  1.00  0.00    -0.022 C 
HETATM   13  C17 UNL     1       2.439   7.991  10.807  1.00  0.00    -0.059 C 
HETATM   14  C18 UNL     1       2.424   7.680  12.304  1.00  0.00     0.057 C 
HETATM   15  C19 UNL     1       3.700   8.193  12.979  1.00  0.00     0.024 C 
HETATM   16  C20 UNL     1       4.751   8.773  12.389  1.00  0.00     0.116 C 
HETATM   17  C27 UNL     1       4.774   8.902  10.907  1.00  0.00     0.194 C 
HETATM   18  O8  UNL     1       5.617   9.637  10.390  1.00  0.00    -0.289 OA
HETATM   19  C28 UNL     1       3.811   8.016  10.102  1.00  0.00     0.044 C 
HETATM   20  C29 UNL     1       3.788   8.561   8.654  1.00  0.00     0.028 C 
HETATM   21  C30 UNL     1       4.414   6.594  10.052  1.00  0.00     0.028 C 
HETATM   22  C31 UNL     1       1.108   8.158  13.086  1.00  0.00     0.032 C 
HETATM   23  C32 UNL     1       1.302   9.643  13.503  1.00  0.00     0.025 C 
HETATM   24  C33 UNL     1       1.014   7.292  14.403  1.00  0.00     0.137 C 
HETATM   25  O9  UNL     1       2.015   6.757  14.886  1.00  0.00    -0.297 OA
HETATM   26  C34 UNL     1      -0.305   7.058  15.139  1.00  0.00     0.089 C 
HETATM   27  C35 UNL     1      -1.540   7.297  14.288  1.00  0.00    -0.021 C 
HETATM   28  C36 UNL     1      -2.022   8.770  14.534  1.00  0.00     0.017 C 
HETATM   29  O10 UNL     1      -4.617   5.743  13.113  1.00  0.00    -0.376 OA
ENDROOT
BRANCH  16  30
HETATM   30  O2  UNL     1       5.769   9.324  13.144  1.00  0.00    -0.314 OA
BRANCH  30  31
HETATM   31  C21 UNL     1       7.092   8.921  12.743  1.00  0.00     0.298 C 
HETATM   32  O3  UNL     1       7.482   7.782  13.530  1.00  0.00    -0.348 OA
HETATM   33  C22 UNL     1       8.045   8.077  14.820  1.00  0.00     0.179 C 
HETATM   34  C24 UNL     1       9.344   8.901  14.704  1.00  0.00     0.180 C 
HETATM   35  C25 UNL     1       9.443   9.617  13.349  1.00  0.00     0.183 C 
HETATM   36  C26 UNL     1       8.076  10.111  12.878  1.00  0.00     0.205 C 
BRANCH  33  37
HETATM   37  C23 UNL     1       7.024   8.728  15.768  1.00  0.00     0.198 C 
BRANCH  37  38
HETATM   38  O4  UNL     1       5.849   7.928  15.878  1.00  0.00    -0.398 OA
HETATM   39  H32 UNL     1       5.251   8.393  16.490  1.00  0.00     0.209 HD
ENDBRANCH  37  38
ENDBRANCH  33  37
BRANCH  34  40
HETATM   40  O5  UNL     1      10.478   8.017  14.808  1.00  0.00    -0.390 OA
HETATM   41  H34 UNL     1      10.959   8.283  15.612  1.00  0.00     0.210 HD
ENDBRANCH  34  40
BRANCH  35  42
HETATM   42  O6  UNL     1      10.322  10.752  13.472  1.00  0.00    -0.390 OA
HETATM   43  H36 UNL     1      10.295  11.168  12.584  1.00  0.00     0.210 HD
ENDBRANCH  35  42
BRANCH  36  44
HETATM   44  O7  UNL     1       8.264  10.803  11.627  1.00  0.00    -0.388 OA
HETATM   45  H38 UNL     1       7.396  11.213  11.419  1.00  0.00     0.210 HD
ENDBRANCH  36  44
ENDBRANCH  30  31
ENDBRANCH  16  30
BRANCH   3  46
HETATM   46  O1  UNL     1      -3.143   7.126  16.794  1.00  0.00    -0.390 OA
HETATM   47  H14 UNL     1      -2.332   6.795  17.223  1.00  0.00     0.210 HD
ENDBRANCH   3  46
BRANCH   1  48
HETATM   48  C4  UNL     1      -6.858   6.187  13.795  1.00  0.00     0.007 C 
HETATM   49  C2  UNL     1      -7.899   5.495  13.279  1.00  0.00    -0.089 C 
HETATM   50  C1  UNL     1      -7.916   4.012  13.028  1.00  0.00     0.042 C 
HETATM   51  C3  UNL     1      -9.188   6.199  12.913  1.00  0.00     0.042 C 
ENDBRANCH   1  48
TORSDOF 9
ENDMDL
