MODEL 1
REMARK minimizedAffinity -9.18241978
REMARK CNNscore 0.447818071
REMARK CNNaffinity 8.26943874
REMARK  15 active torsions:
REMARK  status: ('A' for Active; 'I' for Inactive)
REMARK    1  A    between atoms: C2_2  and  C3_3 
REMARK    2  A    between atoms: C2_2  and  C37_47 
REMARK    3  A    between atoms: C3_3  and  C4_4 
REMARK    4  A    between atoms: C4_4  and  C5_5 
REMARK    5  A    between atoms: C5_5  and  C6_6 
REMARK    6  A    between atoms: C5_5  and  C13_20 
REMARK    7  A    between atoms: C6_6  and  O2_8 
REMARK    8  A    between atoms: O2_8  and  C7_9 
REMARK    9  A    between atoms: C8_11  and  C9_12 
REMARK   10  A    between atoms: C9_12  and  O4_13 
REMARK   11  A    between atoms: C10_14  and  O5_15 
REMARK   12  A    between atoms: C11_16  and  O6_17 
REMARK   13  A    between atoms: C12_18  and  O7_19 
REMARK   14  A    between atoms: C14_21  and  O8_22 
REMARK   15  A    between atoms: O8_22  and  C15_23 
ROOT
HETATM    1  C13 UNL     1      -1.926  50.399 -22.040  1.00  0.00     0.038 C 
HETATM    2  C14 UNL     1      -1.315  51.403 -21.015  1.00  0.00     0.138 C 
HETATM    3  C17 UNL     1      -1.424  50.747 -19.625  1.00  0.00     0.047 C 
HETATM    4  C18 UNL     1      -1.661  49.249 -19.912  1.00  0.00    -0.010 C 
HETATM    5  C19 UNL     1      -0.268  48.599 -20.189  1.00  0.00     0.021 C 
HETATM    6  C20 UNL     1      -2.285  48.372 -18.830  1.00  0.00    -0.068 C 
HETATM    7  C21 UNL     1      -2.981  47.259 -19.178  1.00  0.00    -0.068 C 
HETATM    8  C22 UNL     1      -3.204  46.892 -20.654  1.00  0.00     0.036 C 
HETATM    9  C23 UNL     1      -2.728  47.904 -21.724  1.00  0.00     0.015 C 
HETATM   10  C24 UNL     1      -2.637  49.329 -21.157  1.00  0.00    -0.026 C 
HETATM   11  C25 UNL     1      -4.069  49.794 -20.787  1.00  0.00     0.016 C 
HETATM   12  C26 UNL     1      -3.615  46.315 -18.121  1.00  0.00    -0.015 C 
HETATM   13  C27 UNL     1      -5.139  46.605 -18.114  1.00  0.00     0.020 C 
HETATM   14  C28 UNL     1      -3.382  44.827 -18.514  1.00  0.00     0.021 C 
HETATM   15  C29 UNL     1      -3.472  43.813 -17.374  1.00  0.00     0.080 C 
HETATM   16  C30 UNL     1      -4.120  44.358 -16.124  1.00  0.00     0.135 C 
HETATM   17  O10 UNL     1      -5.001  43.714 -15.553  1.00  0.00    -0.297 OA
HETATM   18  C31 UNL     1      -3.565  45.669 -15.555  1.00  0.00     0.018 C 
HETATM   19  C32 UNL     1      -4.670  46.385 -14.751  1.00  0.00     0.023 C 
HETATM   20  C33 UNL     1      -2.452  45.279 -14.556  1.00  0.00     0.023 C 
HETATM   21  C34 UNL     1      -2.952  46.530 -16.713  1.00  0.00     0.013 C 
HETATM   22  C35 UNL     1      -2.862  48.024 -16.369  1.00  0.00     0.011 C 
HETATM   23  C36 UNL     1      -2.027  48.776 -17.397  1.00  0.00     0.036 C 
ENDROOT
BRANCH   1  24
HETATM   24  C5  UNL     1      -2.562  51.112 -23.274  1.00  0.00     0.093 C 
BRANCH  24  25
HETATM   25  C4  UNL     1      -4.040  51.536 -23.056  1.00  0.00     0.019 C 
BRANCH  25  26
HETATM   26  C3  UNL     1      -5.065  51.128 -24.128  1.00  0.00     0.034 C 
BRANCH  26  27
HETATM   27  C2  UNL     1      -5.911  49.935 -23.691  1.00  0.00    -0.086 C 
HETATM   28  C1  UNL     1      -6.949  50.135 -22.857  1.00  0.00     0.014 C 
BRANCH  27  29
HETATM   29  C37 UNL     1      -5.524  48.561 -24.240  1.00  0.00     0.005 C 
HETATM   30  C38 UNL     1      -4.228  48.537 -25.059  1.00  0.00     0.014 C 
HETATM   31  C39 UNL     1      -6.659  47.958 -25.069  1.00  0.00     0.014 C 
ENDBRANCH  27  29
ENDBRANCH  26  27
ENDBRANCH  25  26
ENDBRANCH  24  25
BRANCH  24  32
HETATM   32  C6  UNL     1      -1.821  52.137 -24.146  1.00  0.00     0.266 C 
HETATM   33  O1  UNL     1      -2.204  53.301 -24.226  1.00  0.00    -0.265 OA
BRANCH  32  34
HETATM   34  O2  UNL     1      -0.749  51.654 -24.816  1.00  0.00    -0.287 OA
BRANCH  34  35
HETATM   35  C7  UNL     1      -1.059  50.777 -25.921  1.00  0.00     0.301 C 
HETATM   36  O3  UNL     1       0.105  50.375 -26.652  1.00  0.00    -0.348 OA
HETATM   37  C8  UNL     1       0.831  51.439 -27.276  1.00  0.00     0.179 C 
HETATM   38  C10 UNL     1       0.019  52.726 -27.493  1.00  0.00     0.180 C 
HETATM   39  C11 UNL     1      -1.399  52.354 -27.911  1.00  0.00     0.183 C 
HETATM   40  C12 UNL     1      -2.081  51.446 -26.874  1.00  0.00     0.205 C 
BRANCH  37  41
HETATM   41  C9  UNL     1       2.118  51.700 -26.500  1.00  0.00     0.198 C 
BRANCH  41  42
HETATM   42  O4  UNL     1       3.258  51.504 -27.336  1.00  0.00    -0.398 OA
HETATM   43  H12 UNL     1       3.980  52.029 -26.917  1.00  0.00     0.209 HD
ENDBRANCH  41  42
ENDBRANCH  37  41
BRANCH  38  44
HETATM   44  O5  UNL     1       0.604  53.554 -28.506  1.00  0.00    -0.390 OA
HETATM   45  H14 UNL     1       1.549  53.649 -28.248  1.00  0.00     0.210 HD
ENDBRANCH  38  44
BRANCH  39  46
HETATM   46  O6  UNL     1      -2.155  53.557 -28.104  1.00  0.00    -0.390 OA
HETATM   47  H16 UNL     1      -1.611  54.092 -28.717  1.00  0.00     0.210 HD
ENDBRANCH  39  46
BRANCH  40  48
HETATM   48  O7  UNL     1      -2.823  50.427 -27.577  1.00  0.00    -0.388 OA
HETATM   49  H18 UNL     1      -2.176  49.861 -28.037  1.00  0.00     0.210 HD
ENDBRANCH  40  48
ENDBRANCH  34  35
ENDBRANCH  32  34
ENDBRANCH  24  32
ENDBRANCH   1  24
BRANCH   2  50
HETATM   50  O8  UNL     1       0.071  51.581 -21.368  1.00  0.00    -0.316 OA
BRANCH  50  51
HETATM   51  C15 UNL     1       0.556  52.843 -21.462  1.00  0.00     0.255 C 
HETATM   52  C16 UNL     1       0.691  53.449 -20.098  1.00  0.00     0.126 C 
HETATM   53  O9  UNL     1       0.900  53.407 -22.488  1.00  0.00    -0.266 OA
ENDBRANCH  50  51
ENDBRANCH   2  50
TORSDOF 15
ENDMDL
