MODEL 1
REMARK minimizedAffinity -6.5385294
REMARK CNNscore 0.712774277
REMARK CNNaffinity 7.06196594
REMARK  5 active torsions:
REMARK  status: ('A' for Active; 'I' for Inactive)
REMARK    1  A    between atoms: C2_2  and  C3_3 
REMARK    2  A    between atoms: C4_5  and  C5_6 
REMARK    3  A    between atoms: C5_6  and  C6_7 
REMARK    4  A    between atoms: C6_7  and  C7_8 
REMARK    5  A    between atoms: C7_8  and  C9_10 
ROOT
HETATM    1  C9  UNL     1      -1.683  14.798   4.477  1.00  0.00    -0.002 C 
HETATM    2  C10 UNL     1      -2.512  14.909   3.166  1.00  0.00     0.007 C 
HETATM    3  C11 UNL     1      -1.526  14.822   1.986  1.00  0.00     0.015 C 
HETATM    4  C12 UNL     1      -0.206  14.324   2.603  1.00  0.00    -0.005 C 
HETATM    5  C13 UNL     1      -0.304  12.770   2.706  1.00  0.00     0.021 C 
HETATM    6  C14 UNL     1       1.115  14.588   1.894  1.00  0.00    -0.000 C 
HETATM    7  C15 UNL     1       2.275  14.732   2.585  1.00  0.00    -0.060 C 
HETATM    8  C16 UNL     1       2.272  14.678   4.121  1.00  0.00     0.036 C 
HETATM    9  C17 UNL     1       0.911  14.546   4.837  1.00  0.00     0.015 C 
HETATM   10  C18 UNL     1      -0.236  15.095   3.981  1.00  0.00    -0.028 C 
HETATM   11  C19 UNL     1      -0.051  16.639   3.830  1.00  0.00     0.016 C 
HETATM   12  C20 UNL     1       3.651  14.986   1.909  1.00  0.00    -0.014 C 
HETATM   13  C21 UNL     1       3.989  16.482   2.099  1.00  0.00     0.020 C 
HETATM   14  C22 UNL     1       4.745  14.107   2.567  1.00  0.00     0.021 C 
HETATM   15  C23 UNL     1       6.083  14.042   1.839  1.00  0.00     0.080 C 
HETATM   16  C24 UNL     1       6.155  14.790   0.530  1.00  0.00     0.135 C 
HETATM   17  O2  UNL     1       7.222  15.306   0.189  1.00  0.00    -0.297 OA
HETATM   18  C25 UNL     1       4.932  14.794  -0.394  1.00  0.00     0.018 C 
HETATM   19  C26 UNL     1       4.938  16.119  -1.192  1.00  0.00     0.023 C 
HETATM   20  C27 UNL     1       5.138  13.643  -1.398  1.00  0.00     0.023 C 
HETATM   21  C28 UNL     1       3.606  14.558   0.406  1.00  0.00     0.020 C 
HETATM   22  C29 UNL     1       2.367  15.128  -0.286  1.00  0.00     0.090 C 
HETATM   23  C30 UNL     1       1.122  14.633   0.399  1.00  0.00     0.157 C 
HETATM   24  O3  UNL     1       0.144  14.293  -0.259  1.00  0.00    -0.293 OA
ENDROOT
BRANCH   1  25
HETATM   25  C7  UNL     1      -2.298  15.642   5.628  1.00  0.00    -0.014 C 
HETATM   26  C8  UNL     1      -3.224  16.754   5.122  1.00  0.00     0.010 C 
BRANCH  25  27
HETATM   27  C6  UNL     1      -1.224  16.251   6.570  1.00  0.00     0.008 C 
BRANCH  27  28
HETATM   28  C5  UNL     1      -1.477  17.702   6.999  1.00  0.00     0.028 C 
BRANCH  28  29
HETATM   29  C4  UNL     1      -1.525  17.815   8.497  1.00  0.00    -0.017 C 
HETATM   30  C2  UNL     1      -2.567  18.203   9.256  1.00  0.00    -0.028 C 
HETATM   31  C1  UNL     1      -3.937  18.585   8.794  1.00  0.00     0.051 C 
BRANCH  30  32
HETATM   32  C3  UNL     1      -2.369  18.246  10.738  1.00  0.00     0.265 C 
HETATM   33  O1  UNL     1      -3.171  17.806  11.551  1.00  0.00    -0.302 OA
ENDBRANCH  30  32
ENDBRANCH  28  29
ENDBRANCH  27  28
ENDBRANCH  25  27
ENDBRANCH   1  25
TORSDOF 5
ENDMDL
