MODEL 1
REMARK minimizedAffinity -6.06215096
REMARK CNNscore 0.706863582
REMARK CNNaffinity 7.31091261
REMARK  12 active torsions:
REMARK  status: ('A' for Active; 'I' for Inactive)
REMARK    1  A    between atoms: C2_2  and  O2_4 
REMARK    2  A    between atoms: O2_4  and  C3_5 
REMARK    3  A    between atoms: C4_6  and  O3_7 
REMARK    4  A    between atoms: O3_7  and  C5_8 
REMARK    5  A    between atoms: C5_8  and  C6_10 
REMARK    6  A    between atoms: C12_16  and  C13_17 
REMARK    7  A    between atoms: C13_17  and  O5_18 
REMARK    8  A    between atoms: O5_18  and  C14_19 
REMARK    9  A    between atoms: C14_19  and  C15_21 
REMARK   10  A    between atoms: C20_28  and  O7_29 
REMARK   11  A    between atoms: O7_29  and  C21_30 
REMARK   12  A    between atoms: C21_30  and  C22_32 
ROOT
HETATM    1  C3  UNL     1       0.816  54.582  -6.841  1.00  0.00     0.169 C 
HETATM    2  C4  UNL     1       1.640  53.531  -7.650  1.00  0.00     0.178 C 
HETATM    3  C12 UNL     1       3.061  54.012  -8.140  1.00  0.00     0.069 C 
HETATM    4  C20 UNL     1       3.455  53.287  -9.467  1.00  0.00     0.148 C 
HETATM    5  C25 UNL     1       4.859  53.671  -9.960  1.00  0.00     0.034 C 
HETATM    6  C26 UNL     1       5.231  55.131  -9.708  1.00  0.00     0.010 C 
HETATM    7  C27 UNL     1       4.016  56.056  -9.564  1.00  0.00     0.017 C 
HETATM    8  C28 UNL     1       3.356  56.271 -10.938  1.00  0.00     0.013 C 
HETATM    9  C29 UNL     1       3.059  55.577  -8.426  1.00  0.00     0.080 C 
HETATM   10  C30 UNL     1       1.630  56.120  -8.587  1.00  0.00     0.050 C 
HETATM   11  C31 UNL     1       1.171  56.063  -7.139  1.00  0.00     0.054 C 
HETATM   12  C32 UNL     1       2.393  56.702  -6.447  1.00  0.00     0.061 C 
HETATM   13  C33 UNL     1       2.387  58.242  -6.596  1.00  0.00     0.046 C 
HETATM   14  C34 UNL     1       2.604  56.421  -4.960  1.00  0.00     0.046 C 
HETATM   15  O9  UNL     1       3.527  56.216  -7.197  1.00  0.00    -0.368 OA
ENDROOT
BRANCH   3  16
HETATM   16  C13 UNL     1       4.078  53.626  -7.009  1.00  0.00     0.197 C 
BRANCH  16  17
HETATM   17  O5  UNL     1       5.049  54.672  -6.815  1.00  0.00    -0.316 OA
BRANCH  17  18
HETATM   18  C14 UNL     1       6.297  54.278  -6.476  1.00  0.00     0.294 C 
HETATM   19  O6  UNL     1       6.754  53.153  -6.583  1.00  0.00    -0.259 OA
BRANCH  18  20
HETATM   20  C15 UNL     1       7.046  55.426  -5.924  1.00  0.00     0.054 A 
HETATM   21  C16 UNL     1       6.587  56.746  -5.976  1.00  0.00     0.020 A 
HETATM   22  C17 UNL     1       7.360  57.763  -5.417  1.00  0.00     0.018 A 
HETATM   23  C18 UNL     1       8.568  57.423  -4.828  1.00  0.00     0.087 A 
HETATM   24  N1  UNL     1       9.046  56.159  -4.769  1.00  0.00    -0.374 N 
HETATM   25  C19 UNL     1       8.274  55.189  -5.323  1.00  0.00     0.105 A 
ATOM     26  H1  UNL     1       9.942  55.945  -4.331  1.00  0.00     0.164 HD
ENDBRANCH  18  20
ENDBRANCH  17  18
ENDBRANCH  16  17
ENDBRANCH   3  16
BRANCH   2  27
HETATM   27  O3  UNL     1       0.840  53.156  -8.812  1.00  0.00    -0.308 OA
BRANCH  27  28
HETATM   28  C5  UNL     1      -0.210  52.327  -8.577  1.00  0.00     0.293 C 
HETATM   29  O4  UNL     1      -0.182  51.325  -7.880  1.00  0.00    -0.259 OA
BRANCH  28  30
HETATM   30  C6  UNL     1      -1.423  52.791  -9.300  1.00  0.00     0.039 A 
HETATM   31  C7  UNL     1      -1.562  54.101  -9.777  1.00  0.00     0.017 A 
HETATM   32  C8  UNL     1      -2.712  54.473 -10.478  1.00  0.00     0.001 A 
HETATM   33  C9  UNL     1      -3.727  53.543 -10.701  1.00  0.00     0.000 A 
HETATM   34  C10 UNL     1      -3.597  52.239 -10.229  1.00  0.00     0.001 A 
HETATM   35  C11 UNL     1      -2.448  51.862  -9.531  1.00  0.00     0.017 A 
ENDBRANCH  28  30
ENDBRANCH  27  28
ENDBRANCH   2  27
BRANCH   4  36
HETATM   36  O7  UNL     1       3.384  51.853  -9.326  1.00  0.00    -0.315 OA
BRANCH  36  37
HETATM   37  C21 UNL     1       3.442  51.121 -10.475  1.00  0.00     0.262 C 
HETATM   38  O8  UNL     1       4.283  50.270 -10.723  1.00  0.00    -0.265 OA
BRANCH  37  39
HETATM   39  C22 UNL     1       2.305  51.523 -11.395  1.00  0.00     0.077 C 
HETATM   40  C23 UNL     1       1.207  50.466 -11.342  1.00  0.00     0.020 C 
HETATM   41  C24 UNL     1       2.807  51.723 -12.821  1.00  0.00     0.020 C 
ENDBRANCH  37  39
ENDBRANCH  36  37
ENDBRANCH   4  36
BRANCH   1  42
HETATM   42  O2  UNL     1       0.867  54.240  -5.448  1.00  0.00    -0.313 OA
BRANCH  42  43
HETATM   43  C2  UNL     1      -0.321  54.257  -4.781  1.00  0.00     0.255 C 
HETATM   44  C1  UNL     1      -0.084  54.091  -3.311  1.00  0.00     0.126 C 
HETATM   45  O1  UNL     1      -1.421  54.411  -5.292  1.00  0.00    -0.266 OA
ENDBRANCH  42  43
ENDBRANCH   1  42
TORSDOF 12
ENDMDL
