MODEL 1
REMARK minimizedAffinity -9.19344044
REMARK  7 active torsions:
REMARK  status: ('A' for Active; 'I' for Inactive)
REMARK    1  A    between atoms: C3_3  and  C5_5 
REMARK    2  A    between atoms: C6_6  and  C7_7 
REMARK    3  A    between atoms: C8_8  and  C9_9 
REMARK    4  A    between atoms: C10_10  and  C12_12 
REMARK    5  A    between atoms: C12_12  and  C13_14 
REMARK    6  A    between atoms: C13_14  and  C15_16 
REMARK    7  A    between atoms: C15_16  and  O2_17 
ROOT
HETATM    1  C5  UNL     1      -4.577  48.759 -23.566  1.00  0.00     0.058 C 
HETATM    2  C6  UNL     1      -3.007  48.790 -23.493  1.00  0.00     0.024 C 
HETATM    3  C16 UNL     1      -2.467  49.003 -22.027  1.00  0.00     0.003 C 
HETATM    4  C17 UNL     1      -1.621  47.798 -21.573  1.00  0.00     0.041 C 
HETATM    5  C18 UNL     1      -1.121  47.961 -20.169  1.00  0.00     0.157 A 
HETATM    6  O3  UNL     1      -2.053  47.518 -19.169  1.00  0.00    -0.370 OA
HETATM    7  C19 UNL     1      -1.778  48.923 -19.199  1.00  0.00     0.084 A 
HETATM    8  C20 UNL     1      -1.008  49.403 -18.010  1.00  0.00     0.049 C 
HETATM    9  C21 UNL     1      -2.924  49.780 -19.663  1.00  0.00     0.048 C 
HETATM   10  C22 UNL     1      -3.564  49.279 -20.969  1.00  0.00     0.025 C 
HETATM   11  C23 UNL     1      -4.580  50.257 -21.497  1.00  0.00     0.162 A 
HETATM   12  O4  UNL     1      -5.887  49.700 -21.663  1.00  0.00    -0.368 OA
HETATM   13  C24 UNL     1      -5.153  49.988 -22.871  1.00  0.00     0.092 A 
HETATM   14  C25 UNL     1      -5.759  51.107 -23.654  1.00  0.00     0.049 C 
ENDROOT
BRANCH   2  15
HETATM   15  C7  UNL     1      -2.314  49.737 -24.465  1.00  0.00    -0.021 C 
HETATM   16  C8  UNL     1      -2.133  51.059 -24.301  1.00  0.00    -0.003 C 
BRANCH  16  17
HETATM   17  C9  UNL     1      -1.384  51.871 -25.236  1.00  0.00     0.010 C 
HETATM   18  C10 UNL     1      -0.294  52.606 -24.949  1.00  0.00    -0.016 C 
HETATM   19  C11 UNL     1       0.408  52.734 -23.634  1.00  0.00     0.052 C 
BRANCH  18  20
HETATM   20  C12 UNL     1       0.331  53.287 -26.128  1.00  0.00     0.161 C 
HETATM   21  O1  UNL     1       0.184  54.505 -26.257  1.00  0.00    -0.292 OA
BRANCH  20  22
HETATM   22  C13 UNL     1       1.131  52.484 -27.153  1.00  0.00     0.080 C 
HETATM   23  C14 UNL     1       0.198  51.801 -28.147  1.00  0.00     0.020 C 
BRANCH  22  24
HETATM   24  C15 UNL     1       2.107  51.496 -26.513  1.00  0.00     0.176 C 
BRANCH  24  25
HETATM   25  O2  UNL     1       3.321  51.421 -27.258  1.00  0.00    -0.400 OA
HETATM   26  H22 UNL     1       3.736  52.301 -27.276  1.00  0.00     0.209 HD
ENDBRANCH  24  25
ENDBRANCH  22  24
ENDBRANCH  20  22
ENDBRANCH  18  20
ENDBRANCH  16  17
ENDBRANCH   2  15
BRANCH   1  27
HETATM   27  C3  UNL     1      -5.225  48.344 -24.899  1.00  0.00    -0.080 C 
HETATM   28  C2  UNL     1      -4.510  48.463 -26.039  1.00  0.00    -0.028 C 
HETATM   29  C1  UNL     1      -4.944  48.151 -27.437  1.00  0.00     0.036 C 
HETATM   30  C4  UNL     1      -6.624  47.790 -24.889  1.00  0.00     0.043 C 
ENDBRANCH   1  27
TORSDOF 7
ENDMDL
