MODEL 1
REMARK minimizedAffinity -7.25549603
REMARK CNNscore 0.7830863
REMARK CNNaffinity 7.13837862
REMARK  10 active torsions:
REMARK  status: ('A' for Active; 'I' for Inactive)
REMARK    1  A    between atoms: C2_2  and  O1_3 
REMARK    2  A    between atoms: O1_3  and  C3_4 
REMARK    3  A    between atoms: C3_4  and  C4_6 
REMARK    4  A    between atoms: C4_6  and  C5_7 
REMARK    5  A    between atoms: C5_7  and  C6_8 
REMARK    6  A    between atoms: C6_8  and  C8_10 
REMARK    7  A    between atoms: C13_15  and  O3_16 
REMARK    8  A    between atoms: C17_21  and  O4_22 
REMARK    9  A    between atoms: C24_29  and  O5_30 
REMARK   10  A    between atoms: O5_30  and  C25_31 
ROOT
HETATM    1  C8  UNL     1      -0.868  50.138 -16.144  1.00  0.00     0.000 C 
HETATM    2  C9  UNL     1      -2.058  49.172 -15.843  1.00  0.00     0.006 C 
HETATM    3  C10 UNL     1      -1.899  48.660 -14.418  1.00  0.00     0.006 C 
HETATM    4  C11 UNL     1      -0.950  49.655 -13.751  1.00  0.00     0.003 C 
HETATM    5  C12 UNL     1      -1.723  50.914 -13.206  1.00  0.00     0.025 C 
HETATM    6  C13 UNL     1      -2.636  50.533 -12.011  1.00  0.00     0.137 C 
HETATM    7  C14 UNL     1      -2.832  51.636 -10.968  1.00  0.00     0.092 C 
HETATM    8 BR1  UNL     1      -3.909  53.113 -11.678  1.00  0.00    -0.088 Br
HETATM    9  C15 UNL     1      -1.483  52.065 -10.377  1.00  0.00     0.013 C 
HETATM   10  C16 UNL     1      -1.632  53.148  -9.286  1.00  0.00     0.038 C 
HETATM   11  C17 UNL     1      -0.279  53.565  -8.730  1.00  0.00     0.118 C 
HETATM   12  C18 UNL     1       0.607  54.173  -9.816  1.00  0.00     0.032 C 
HETATM   13  C19 UNL     1       0.182  53.805 -11.240  1.00  0.00     0.012 C 
HETATM   14  C20 UNL     1      -0.334  52.342 -11.426  1.00  0.00    -0.035 C 
HETATM   15  C21 UNL     1       0.845  51.390 -11.111  1.00  0.00     0.016 C 
HETATM   16  C22 UNL     1      -0.835  52.156 -12.916  1.00  0.00     0.003 C 
HETATM   17  C23 UNL     1       0.201  52.367 -14.034  1.00  0.00     0.039 C 
HETATM   18  C24 UNL     1       0.979  51.119 -14.439  1.00  0.00     0.141 C 
HETATM   19  C27 UNL     1       0.081  49.941 -14.902  1.00  0.00    -0.009 C 
HETATM   20  C28 UNL     1       1.001  48.708 -15.117  1.00  0.00     0.018 C 
ENDROOT
BRANCH   1  21
HETATM   21  C6  UNL     1      -0.384  49.913 -17.620  1.00  0.00    -0.013 C 
HETATM   22  C7  UNL     1      -1.293  48.866 -18.303  1.00  0.00     0.010 C 
BRANCH  21  23
HETATM   23  C5  UNL     1      -0.339  51.198 -18.471  1.00  0.00     0.014 C 
BRANCH  23  24
HETATM   24  C4  UNL     1      -0.011  51.030 -19.956  1.00  0.00     0.111 C 
BRANCH  24  25
HETATM   25  C3  UNL     1      -0.380  52.259 -20.747  1.00  0.00     0.258 C 
HETATM   26  O2  UNL     1      -1.067  52.240 -21.758  1.00  0.00    -0.265 OA
BRANCH  25  27
HETATM   27  O1  UNL     1       0.134  53.377 -20.166  1.00  0.00    -0.322 OA
BRANCH  27  28
HETATM   28  C2  UNL     1       1.502  53.637 -20.499  1.00  0.00     0.174 C 
HETATM   29  C1  UNL     1       1.529  54.471 -21.766  1.00  0.00     0.034 C 
ENDBRANCH  27  28
ENDBRANCH  25  27
ENDBRANCH  24  25
ENDBRANCH  23  24
ENDBRANCH  21  23
ENDBRANCH   1  21
BRANCH  18  30
HETATM   30  O5  UNL     1       1.926  51.491 -15.452  1.00  0.00    -0.316 OA
BRANCH  30  31
HETATM   31  C25 UNL     1       3.226  51.620 -15.069  1.00  0.00     0.255 C 
HETATM   32  C26 UNL     1       3.937  52.561 -15.991  1.00  0.00     0.126 C 
HETATM   33  O6  UNL     1       3.751  51.045 -14.126  1.00  0.00    -0.266 OA
ENDBRANCH  30  31
ENDBRANCH  18  30
BRANCH   6  34
HETATM   34  O3  UNL     1      -3.897  50.067 -12.500  1.00  0.00    -0.394 OA
HETATM   35  H22 UNL     1      -4.516  49.991 -11.754  1.00  0.00     0.210 HD
ENDBRANCH   6  34
BRANCH  11  36
HETATM   36  O4  UNL     1      -0.484  54.513  -7.687  1.00  0.00    -0.396 OA
HETATM   37  H28 UNL     1       0.391  54.802  -7.377  1.00  0.00     0.210 HD
ENDBRANCH  11  36
TORSDOF 10
ENDMDL
