MODEL 1
REMARK minimizedAffinity -7.52665472
REMARK CNNscore 0.849318624
REMARK CNNaffinity 7.27609873
REMARK  7 active torsions:
REMARK  status: ('A' for Active; 'I' for Inactive)
REMARK    1  A    between atoms: C2_2  and  C30_33 
REMARK    2  A    between atoms: C3_3  and  C4_4 
REMARK    3  A    between atoms: C4_4  and  C5_5 
REMARK    4  A    between atoms: C5_5  and  C6_6 
REMARK    5  A    between atoms: C6_6  and  C8_8 
REMARK    6  A    between atoms: C10_10  and  O1_11 
REMARK    7  A    between atoms: C30_33  and  O5_35 
ROOT
HETATM    1  C8  UNL     1      -1.876  52.211 -10.929  1.00  0.00     0.001 C 
HETATM    2  C9  UNL     1      -1.119  52.425 -12.265  1.00  0.00     0.038 C 
HETATM    3  C10 UNL     1       0.162  53.222 -11.920  1.00  0.00     0.131 C 
HETATM    4  C11 UNL     1       0.301  53.105 -10.376  1.00  0.00     0.014 C 
HETATM    5  C12 UNL     1       0.978  51.735 -10.046  1.00  0.00     0.023 C 
HETATM    6  C13 UNL     1       1.112  54.134  -9.591  1.00  0.00    -0.058 C 
HETATM    7  C14 UNL     1       0.848  54.386  -8.281  1.00  0.00    -0.000 C 
HETATM    8  C15 UNL     1      -0.364  53.716  -7.634  1.00  0.00     0.157 C 
HETATM    9  O2  UNL     1      -0.577  53.821  -6.427  1.00  0.00    -0.293 OA
HETATM   10  C16 UNL     1      -1.332  52.895  -8.479  1.00  0.00     0.094 C 
HETATM   11  C17 UNL     1      -1.205  53.232  -9.963  1.00  0.00    -0.019 C 
HETATM   12  C18 UNL     1      -1.795  54.660 -10.177  1.00  0.00     0.017 C 
HETATM   13  C19 UNL     1       1.710  55.334  -7.409  1.00  0.00    -0.008 C 
HETATM   14  C20 UNL     1       0.865  56.613  -7.193  1.00  0.00     0.021 C 
HETATM   15  C21 UNL     1       2.041  54.706  -6.016  1.00  0.00     0.022 C 
HETATM   16  C22 UNL     1       3.358  55.141  -5.378  1.00  0.00     0.080 C 
HETATM   17  C23 UNL     1       3.803  56.499  -5.860  1.00  0.00     0.135 C 
HETATM   18  O3  UNL     1       4.051  57.403  -5.063  1.00  0.00    -0.297 OA
HETATM   19  C24 UNL     1       4.012  56.651  -7.370  1.00  0.00     0.018 C 
HETATM   20  C25 UNL     1       3.798  58.119  -7.782  1.00  0.00     0.023 C 
HETATM   21  C26 UNL     1       5.493  56.309  -7.643  1.00  0.00     0.023 C 
HETATM   22  C27 UNL     1       3.087  55.628  -8.117  1.00  0.00     0.014 C 
HETATM   23  C28 UNL     1       2.889  55.958  -9.600  1.00  0.00     0.011 C 
HETATM   24  C29 UNL     1       2.255  54.782 -10.333  1.00  0.00     0.036 C 
ENDROOT
BRANCH   1  25
HETATM   25  C6  UNL     1      -3.431  52.164 -10.996  1.00  0.00    -0.013 C 
HETATM   26  C7  UNL     1      -4.059  52.946 -12.156  1.00  0.00     0.010 C 
BRANCH  25  27
HETATM   27  C5  UNL     1      -3.895  50.683 -11.046  1.00  0.00     0.008 C 
BRANCH  27  28
HETATM   28  C4  UNL     1      -5.008  50.345 -10.049  1.00  0.00     0.028 C 
BRANCH  28  29
HETATM   29  C3  UNL     1      -6.273  49.950 -10.760  1.00  0.00    -0.013 C 
HETATM   30  C2  UNL     1      -7.368  49.348 -10.252  1.00  0.00     0.008 C 
HETATM   31  C1  UNL     1      -8.518  48.935 -11.126  1.00  0.00     0.055 C 
BRANCH  30  32
HETATM   32  C30 UNL     1      -7.562  49.010  -8.822  1.00  0.00     0.171 C 
HETATM   33  O4  UNL     1      -7.180  47.987  -8.284  1.00  0.00    -0.646 OA
BRANCH  32  34
HETATM   34  O5  UNL     1      -8.303  49.908  -8.154  1.00  0.00    -0.773 OA
HETATM   35  H44 UNL     1      -8.371  49.521  -7.257  1.00  0.00     0.167 HD
ENDBRANCH  32  34
ENDBRANCH  30  32
ENDBRANCH  28  29
ENDBRANCH  27  28
ENDBRANCH  25  27
ENDBRANCH   1  25
BRANCH   3  36
HETATM   36  O1  UNL     1       1.281  52.708 -12.626  1.00  0.00    -0.394 OA
HETATM   37  H17 UNL     1       1.073  52.750 -13.576  1.00  0.00     0.210 HD
ENDBRANCH   3  36
TORSDOF 7
ENDMDL
