MODEL 1
REMARK minimizedAffinity -9.03265095
REMARK CNNscore 0.596263826
REMARK CNNaffinity 7.14755869
REMARK  9 active torsions:
REMARK  status: ('A' for Active; 'I' for Inactive)
REMARK    1  A    between atoms: C7_8  and  O1_9 
REMARK    2  A    between atoms: O1_9  and  C8_10 
REMARK    3  A    between atoms: C8_10  and  C9_11 
REMARK       I    between atoms: C9_11  and  N1_13 
REMARK    4  A    between atoms: N1_13  and  N2_14 
REMARK    5  A    between atoms: C10_16  and  C11_17 
REMARK    6  A    between atoms: C14_20  and  O3_21 
REMARK    7  A    between atoms: C16_23  and  O4_24 
REMARK    8  A    between atoms: C25_33  and  C26_34 
REMARK    9  A    between atoms: C32_42  and  O7_43 
ROOT
HETATM    1  C11 UNL     1       0.207  52.468 -10.913  1.00  0.00     0.028 C 
HETATM    2  C12 UNL     1       0.191  50.913 -10.847  1.00  0.00     0.021 C 
HETATM    3  C13 UNL     1      -1.046  50.290 -11.508  1.00  0.00     0.033 C 
HETATM    4  C14 UNL     1      -2.362  50.881 -11.009  1.00  0.00     0.121 C 
HETATM    5  C15 UNL     1      -2.363  52.411 -11.023  1.00  0.00     0.070 C 
HETATM    6  C16 UNL     1      -1.134  53.021 -10.321  1.00  0.00     0.073 C 
HETATM    7  C17 UNL     1      -1.171  54.562 -10.342  1.00  0.00     0.039 C 
HETATM    8  C18 UNL     1       0.017  55.169  -9.569  1.00  0.00     0.011 C 
HETATM    9  C19 UNL     1       1.379  54.633 -10.056  1.00  0.00     0.026 C 
HETATM   10  C20 UNL     1       1.409  53.066 -10.104  1.00  0.00     0.009 C 
HETATM   11  C21 UNL     1       2.789  52.541 -10.574  1.00  0.00     0.007 C 
HETATM   12  C22 UNL     1       3.967  53.128  -9.778  1.00  0.00     0.013 C 
HETATM   13  C23 UNL     1       3.930  54.665  -9.773  1.00  0.00    -0.005 C 
HETATM   14  C24 UNL     1       4.215  55.162 -11.227  1.00  0.00     0.019 C 
HETATM   15  C25 UNL     1       4.955  55.417  -8.856  1.00  0.00     0.028 C 
HETATM   16  C30 UNL     1       4.240  56.782  -8.591  1.00  0.00     0.013 C 
HETATM   17  C31 UNL     1       2.768  56.636  -9.043  1.00  0.00     0.040 C 
HETATM   18  C32 UNL     1       2.567  55.134  -9.197  1.00  0.00     0.070 C 
ENDROOT
BRANCH   1  19
HETATM   19  C10 UNL     1       0.354  52.907 -12.385  1.00  0.00     0.093 C 
HETATM   20  N2  UNL     1       0.985  52.179 -13.260  1.00  0.00    -0.312 N 
ATOM     21  H2  UNL     1       1.406  51.284 -13.011  1.00  0.00     0.185 HD
BRANCH  20  22
HETATM   22  N1  UNL     1       1.051  52.677 -14.523  1.00  0.00    -0.269 N 
HETATM   23  C9  UNL     1       1.256  51.800 -15.590  1.00  0.00     0.260 C 
HETATM   24  O2  UNL     1       1.437  50.589 -15.470  1.00  0.00    -0.269 OA
HETATM   25  H9  UNL     1       1.005  53.683 -14.678  1.00  0.00     0.190 HD
BRANCH  23  26
HETATM   26  C8  UNL     1       1.254  52.527 -16.945  1.00  0.00     0.280 C 
BRANCH  26  27
HETATM   27  O1  UNL     1       0.207  52.207 -17.840  1.00  0.00    -0.342 OA
BRANCH  27  28
HETATM   28  C7  UNL     1       0.379  52.518 -19.164  1.00  0.00     0.075 A 
HETATM   29  C2  UNL     1      -0.007  51.517 -20.078  1.00  0.00    -0.027 A 
HETATM   30  C1  UNL     1      -0.618  50.232 -19.594  1.00  0.00     0.051 C 
HETATM   31  C3  UNL     1       0.142  51.739 -21.458  1.00  0.00     0.033 A 
HETATM   32  C4  UNL     1       0.677  52.941 -21.915  1.00  0.00     0.034 A 
HETATM   33 CL1  UNL     1       0.854  53.212 -23.609  1.00  0.00    -0.084 Cl
HETATM   34  C5  UNL     1       1.072  53.927 -21.016  1.00  0.00     0.026 A 
HETATM   35  C6  UNL     1       0.924  53.716 -19.641  1.00  0.00     0.039 A 
ENDBRANCH  27  28
ENDBRANCH  26  27
ENDBRANCH  23  26
ENDBRANCH  20  22
ENDBRANCH   1  19
BRANCH   6  36
HETATM   36  O4  UNL     1      -1.270  52.728  -8.920  1.00  0.00    -0.389 OA
HETATM   37  H19 UNL     1      -0.945  51.823  -8.727  1.00  0.00     0.210 HD
ENDBRANCH   6  36
BRANCH   4  38
HETATM   38  O3  UNL     1      -2.611  50.413  -9.679  1.00  0.00    -0.395 OA
HETATM   39  H16 UNL     1      -2.668  49.444  -9.722  1.00  0.00     0.210 HD
ENDBRANCH   4  38
BRANCH  18  40
HETATM   40  O7  UNL     1       2.404  54.598  -7.875  1.00  0.00    -0.389 OA
HETATM   41  H41 UNL     1       1.663  55.046  -7.442  1.00  0.00     0.210 HD
ENDBRANCH  18  40
BRANCH  15  42
HETATM   42  C26 UNL     1       5.429  54.701  -7.616  1.00  0.00    -0.045 A 
HETATM   43  C27 UNL     1       5.045  54.841  -6.348  1.00  0.00     0.087 A 
HETATM   44  C28 UNL     1       5.858  53.927  -5.540  1.00  0.00     0.283 A 
HETATM   45  O5  UNL     1       5.754  53.779  -4.333  1.00  0.00    -0.260 OA
HETATM   46  O6  UNL     1       6.731  53.266  -6.352  1.00  0.00    -0.314 OA
HETATM   47  C29 UNL     1       6.536  53.705  -7.696  1.00  0.00     0.213 A 
ENDBRANCH  15  42
TORSDOF 9
ENDMDL
