MODEL 1
REMARK minimizedAffinity -9.25888252
REMARK CNNscore 0.684528112
REMARK CNNaffinity 7.52390671
REMARK  14 active torsions:
REMARK  status: ('A' for Active; 'I' for Inactive)
REMARK    1  A    between atoms: O1_2  and  C2_3 
REMARK    2  A    between atoms: C6_8  and  C7_9 
REMARK    3  A    between atoms: C7_9  and  O3_11 
REMARK    4  A    between atoms: C8_12  and  C9_13 
REMARK    5  A    between atoms: C9_13  and  C10_14 
REMARK    6  A    between atoms: C10_14  and  N2_15 
REMARK       I    between atoms: N2_15  and  C11_16 
REMARK    7  A    between atoms: C11_16  and  C12_18 
REMARK    8  A    between atoms: C12_18  and  C13_19 
REMARK    9  A    between atoms: C13_19  and  C14_20 
REMARK   10  A    between atoms: C14_20  and  O6_22 
REMARK   11  A    between atoms: O6_22  and  C15_23 
REMARK   12  A    between atoms: C15_23  and  C16_24 
REMARK   13  A    between atoms: C16_24  and  C17_26 
REMARK   14  A    between atoms: C17_26  and  O8_27 
ROOT
HETATM    1  C14 UNL     1      -0.474  51.748 -19.231  1.00  0.00     0.259 C 
HETATM    2  O5  UNL     1      -0.498  50.908 -20.124  1.00  0.00    -0.265 OA
ENDROOT
BRANCH   1   3
HETATM    3  C13 UNL     1      -0.082  53.194 -19.413  1.00  0.00     0.120 C 
BRANCH   3   4
HETATM    4  C12 UNL     1       1.311  53.306 -20.021  1.00  0.00     0.112 C 
BRANCH   4   5
HETATM    5  C11 UNL     1       1.253  53.786 -21.459  1.00  0.00     0.218 C 
HETATM    6  N2  UNL     1       0.590  52.913 -22.293  1.00  0.00    -0.361 N 
HETATM    7  H12 UNL     1       0.112  52.118 -21.892  1.00  0.00     0.162 HD
HETATM    8  O4  UNL     1       1.763  54.836 -21.834  1.00  0.00    -0.274 OA
BRANCH   6   9
HETATM    9  C10 UNL     1       0.312  53.247 -23.679  1.00  0.00     0.127 C 
BRANCH   9  10
HETATM   10  C9  UNL     1       0.885  52.231 -24.670  1.00  0.00     0.061 C 
BRANCH  10  11
HETATM   11  C8  UNL     1      -0.198  51.532 -25.446  1.00  0.00    -0.011 A 
HETATM   12  C6  UNL     1      -0.407  51.542 -26.824  1.00  0.00     0.114 A 
HETATM   13  N1  UNL     1      -1.522  50.770 -27.066  1.00  0.00    -0.350 N 
HETATM   14  C5  UNL     1      -2.053  50.281 -25.900  1.00  0.00     0.043 A 
HETATM   15  H6  UNL     1      -1.902  50.607 -27.989  1.00  0.00     0.166 HD
HETATM   16  C4  UNL     1      -3.182  49.485 -25.692  1.00  0.00     0.033 A 
HETATM   17  C36 UNL     1      -1.241  50.728 -24.864  1.00  0.00     0.002 A 
HETATM   18  C3  UNL     1      -3.482  49.128 -24.374  1.00  0.00     0.039 A 
HETATM   19  C2  UNL     1      -2.690  49.546 -23.305  1.00  0.00     0.069 A 
HETATM   20  C37 UNL     1      -1.568  50.350 -23.540  1.00  0.00     0.051 A 
BRANCH  12  21
HETATM   21  C7  UNL     1       0.287  52.170 -27.918  1.00  0.00     0.194 C 
HETATM   22  O2  UNL     1       1.365  51.832 -28.382  1.00  0.00    -0.645 OA
BRANCH  21  23
HETATM   23  O3  UNL     1      -0.395  53.209 -28.426  1.00  0.00    -0.772 OA
HETATM   24  H7  UNL     1       0.161  53.553 -29.150  1.00  0.00     0.167 HD
ENDBRANCH  21  23
ENDBRANCH  12  21
BRANCH  19  25
HETATM   25  O1  UNL     1      -3.117  49.108 -22.079  1.00  0.00    -0.356 OA
HETATM   26  C1  UNL     1      -4.129  48.107 -22.071  1.00  0.00     0.210 C 
ENDBRANCH  19  25
ENDBRANCH  10  11
ENDBRANCH   9  10
ENDBRANCH   6   9
ENDBRANCH   4   5
ENDBRANCH   3   4
ENDBRANCH   1   3
BRANCH   1  27
HETATM   27  O6  UNL     1      -0.756  51.495 -17.926  1.00  0.00    -0.314 OA
BRANCH  27  28
HETATM   28  C15 UNL     1       0.213  50.718 -17.233  1.00  0.00     0.260 C 
BRANCH  28  29
HETATM   29  C16 UNL     1       0.811  51.357 -15.979  1.00  0.00     0.185 C 
HETATM   30  O7  UNL     1       1.276  52.501 -16.051  1.00  0.00    -0.292 OA
BRANCH  29  31
HETATM   31  C17 UNL     1       0.753  50.581 -14.623  1.00  0.00     0.128 C 
HETATM   32  C18 UNL     1       2.069  50.855 -13.858  1.00  0.00     0.047 C 
HETATM   33  C19 UNL     1       1.792  52.027 -12.907  1.00  0.00     0.009 C 
HETATM   34  C20 UNL     1       0.311  52.398 -13.091  1.00  0.00     0.002 C 
HETATM   35  C21 UNL     1      -0.391  52.993 -11.853  1.00  0.00    -0.004 C 
HETATM   36  C34 UNL     1      -0.338  51.104 -13.628  1.00  0.00    -0.002 C 
HETATM   37  C22 UNL     1       0.358  54.226 -11.331  1.00  0.00     0.010 C 
HETATM   38  C31 UNL     1      -0.608  51.966 -10.712  1.00  0.00     0.002 C 
HETATM   39  C23 UNL     1      -0.412  54.895 -10.202  1.00  0.00     0.035 C 
HETATM   40  C24 UNL     1      -0.698  53.933  -9.074  1.00  0.00    -0.068 C 
HETATM   41  C25 UNL     1      -0.438  54.301  -7.807  1.00  0.00     0.053 C 
HETATM   42  C29 UNL     1      -1.333  52.589  -9.452  1.00  0.00    -0.016 C 
HETATM   43  C26 UNL     1      -0.828  53.464  -6.649  1.00  0.00     0.149 C 
HETATM   44  O9  UNL     1      -0.611  53.870  -5.510  1.00  0.00    -0.293 OA
HETATM   45  C27 UNL     1      -1.570  52.179  -6.915  1.00  0.00     0.084 C 
HETATM   46  C28 UNL     1      -1.181  51.592  -8.264  1.00  0.00     0.022 C 
HETATM   47  C30 UNL     1      -2.835  52.839  -9.713  1.00  0.00     0.020 C 
HETATM   48  C32 UNL     1      -1.308  50.707 -11.262  1.00  0.00     0.007 C 
HETATM   49  C33 UNL     1      -0.575  50.101 -12.462  1.00  0.00     0.013 C 
HETATM   50  C35 UNL     1      -1.688  51.396 -14.305  1.00  0.00     0.019 C 
BRANCH  31  51
HETATM   51  O8  UNL     1       0.673  49.175 -14.799  1.00  0.00    -0.381 OA
HETATM   52  H19 UNL     1      -0.230  48.942 -15.097  1.00  0.00     0.211 HD
ENDBRANCH  31  51
ENDBRANCH  29  31
ENDBRANCH  28  29
ENDBRANCH  27  28
ENDBRANCH   1  27
TORSDOF 14
ENDMDL
