MODEL 1
REMARK minimizedAffinity -8.40553093
REMARK CNNscore 0.532665372
REMARK CNNaffinity 5.75695562
REMARK  8 active torsions:
REMARK  status: ('A' for Active; 'I' for Inactive)
REMARK    1  A    between atoms: C3_3  and  O1_4 
REMARK    2  A    between atoms: N1_14  and  O2_16 
REMARK    3  A    between atoms: O2_16  and  C13_17 
REMARK    4  A    between atoms: C13_17  and  C14_18 
REMARK       I    between atoms: C14_18  and  N2_20 
REMARK    5  A    between atoms: N2_20  and  C15_21 
REMARK    6  A    between atoms: C15_21  and  C16_22 
REMARK    7  A    between atoms: C16_22  and  O4_23 
REMARK    8  A    between atoms: C16_22  and  C17_24 
ROOT
HETATM    1  C1  UNL     1     -20.507  42.552 -28.099  1.00  0.00     0.015 C 
HETATM    2  C2  UNL     1     -19.579  43.179 -27.665  1.00  0.00    -0.078 C 
HETATM    3  C3  UNL     1     -18.449  43.952 -27.118  1.00  0.00     0.128 C 
HETATM    4  C4  UNL     1     -18.599  44.164 -25.609  1.00  0.00     0.052 C 
HETATM    5  C5  UNL     1     -17.203  44.604 -25.187  1.00  0.00     0.010 C 
HETATM    6  C6  UNL     1     -16.287  43.632 -25.935  1.00  0.00     0.002 C 
HETATM    7  C7  UNL     1     -14.832  44.092 -26.141  1.00  0.00    -0.004 C 
HETATM    8  C8  UNL     1     -14.142  44.416 -24.808  1.00  0.00     0.010 C 
HETATM    9  C9  UNL     1     -12.666  44.730 -25.025  1.00  0.00     0.035 C 
HETATM   10  C10 UNL     1     -12.453  45.843 -26.023  1.00  0.00    -0.069 C 
HETATM   11  C11 UNL     1     -11.593  46.839 -25.731  1.00  0.00     0.030 C 
HETATM   12  C12 UNL     1     -11.253  47.903 -26.716  1.00  0.00     0.032 C 
HETATM   13  N1  UNL     1     -10.438  48.894 -26.520  1.00  0.00    -0.271 N 
ATOM     14  H1  UNL     1     -10.231  49.606 -27.220  1.00  0.00     0.194 HD
HETATM   15  C23 UNL     1     -11.871  47.800 -28.094  1.00  0.00     0.060 C 
HETATM   16  C24 UNL     1     -13.239  47.141 -28.037  1.00  0.00     0.020 C 
HETATM   17  C25 UNL     1     -13.219  45.743 -27.350  1.00  0.00    -0.016 C 
HETATM   18  C26 UNL     1     -12.466  44.736 -28.251  1.00  0.00     0.020 C 
HETATM   19  C27 UNL     1     -14.715  45.299 -27.099  1.00  0.00     0.002 C 
HETATM   20  C28 UNL     1     -15.538  45.096 -28.393  1.00  0.00     0.007 C 
HETATM   21  C29 UNL     1     -16.234  43.737 -28.511  1.00  0.00     0.014 C 
HETATM   22  C30 UNL     1     -17.033  43.276 -27.268  1.00  0.00     0.003 C 
HETATM   23  C31 UNL     1     -17.139  41.731 -27.339  1.00  0.00     0.020 C 
ENDROOT
BRANCH   3  24
HETATM   24  O1  UNL     1     -18.485  45.251 -27.714  1.00  0.00    -0.377 OA
HETATM   25  H2  UNL     1     -18.570  45.113 -28.670  1.00  0.00     0.211 HD
ENDBRANCH   3  24
BRANCH  13  26
HETATM   26  O2  UNL     1      -9.872  48.877 -25.234  1.00  0.00    -0.271 OA
BRANCH  26  27
HETATM   27  C13 UNL     1      -8.466  48.686 -25.364  1.00  0.00     0.303 C 
BRANCH  27  28
HETATM   28  C14 UNL     1      -7.760  48.980 -24.047  1.00  0.00     0.243 C 
HETATM   29  O3  UNL     1      -8.133  48.521 -22.970  1.00  0.00    -0.271 OA
HETATM   30  N2  UNL     1      -6.714  49.879 -24.150  1.00  0.00    -0.356 N 
HETATM   31  H16 UNL     1      -6.611  50.396 -25.016  1.00  0.00     0.162 HD
BRANCH  30  32
HETATM   32  C15 UNL     1      -6.059  50.397 -22.959  1.00  0.00     0.159 C 
BRANCH  32  33
HETATM   33  C16 UNL     1      -5.339  51.736 -23.219  1.00  0.00     0.170 C 
BRANCH  33  34
HETATM   34  O4  UNL     1      -5.360  52.015 -24.628  1.00  0.00    -0.389 OA
HETATM   35  H20 UNL     1      -4.690  52.704 -24.786  1.00  0.00     0.210 HD
ENDBRANCH  33  34
BRANCH  33  36
HETATM   36  C17 UNL     1      -3.916  51.713 -22.727  1.00  0.00    -0.013 A 
HETATM   37  C18 UNL     1      -3.557  51.180 -21.485  1.00  0.00     0.013 A 
HETATM   38  C19 UNL     1      -2.227  51.228 -21.068  1.00  0.00     0.025 A 
HETATM   39  C20 UNL     1      -1.283  51.807 -21.907  1.00  0.00     0.005 A 
HETATM   40  C21 UNL     1       0.148  51.912 -21.476  1.00  0.00     0.068 C 
HETATM   41  N3  UNL     1      -1.604  52.325 -23.117  1.00  0.00    -0.369 N 
HETATM   42  C22 UNL     1      -2.900  52.278 -23.492  1.00  0.00     0.097 A 
ATOM     43  H3  UNL     1      -0.893  52.736 -23.721  1.00  0.00     0.165 HD
ENDBRANCH  33  36
ENDBRANCH  32  33
ENDBRANCH  30  32
ENDBRANCH  27  28
ENDBRANCH  26  27
ENDBRANCH  13  26
TORSDOF 8
ENDMDL
