MODEL 1
REMARK minimizedAffinity -8.56453514
REMARK CNNscore 0.599021375
REMARK CNNaffinity 7.31204224
REMARK  7 active torsions:
REMARK  status: ('A' for Active; 'I' for Inactive)
REMARK    1  A    between atoms: C4_4  and  C5_5 
REMARK    2  A    between atoms: C5_5  and  O1_6 
REMARK    3  A    between atoms: C5_5  and  C6_7 
REMARK    4  A    between atoms: C6_7  and  C7_8 
REMARK    5  A    between atoms: C7_8  and  C8_9 
REMARK    6  A    between atoms: C7_8  and  C9_11 
REMARK    7  A    between atoms: C8_9  and  O2_10 
ROOT
HETATM    1  C9  UNL     1      -3.307   6.838  14.547  1.00  0.00     0.001 C 
HETATM    2  C10 UNL     1      -3.495   5.473  13.816  1.00  0.00     0.007 C 
HETATM    3  C11 UNL     1      -5.004   5.221  13.670  1.00  0.00     0.015 C 
HETATM    4  C12 UNL     1      -5.670   6.273  14.578  1.00  0.00    -0.013 C 
HETATM    5  C13 UNL     1      -5.670   5.663  16.012  1.00  0.00     0.021 C 
HETATM    6  C14 UNL     1      -7.098   6.677  14.257  1.00  0.00    -0.070 C 
HETATM    7  C15 UNL     1      -7.929   5.963  13.480  1.00  0.00    -0.022 C 
HETATM    8  C16 UNL     1      -9.277   6.489  13.112  1.00  0.00     0.034 C 
HETATM    9  C17 UNL     1     -10.021   7.160  14.292  1.00  0.00     0.013 C 
HETATM   10  C18 UNL     1     -11.309   7.921  13.819  1.00  0.00     0.018 C 
HETATM   11  C19 UNL     1     -12.342   6.904  13.267  1.00  0.00     0.023 C 
HETATM   12  C20 UNL     1     -11.066   8.960  12.710  1.00  0.00     0.023 C 
HETATM   13  C21 UNL     1     -11.937   8.618  15.030  1.00  0.00     0.135 C 
HETATM   14  O3  UNL     1     -13.139   8.520  15.298  1.00  0.00    -0.297 OA
HETATM   15  C22 UNL     1     -11.060   9.486  15.900  1.00  0.00     0.080 C 
HETATM   16  C23 UNL     1      -9.581   9.393  15.567  1.00  0.00     0.017 C 
HETATM   17  C24 UNL     1      -9.072   7.953  15.298  1.00  0.00    -0.031 C 
HETATM   18  C25 UNL     1      -9.117   7.184  16.654  1.00  0.00     0.016 C 
HETATM   19  C26 UNL     1      -7.581   8.031  14.762  1.00  0.00     0.024 C 
HETATM   20  C27 UNL     1      -6.585   8.719  15.733  1.00  0.00     0.010 C 
HETATM   21  C28 UNL     1      -5.084   8.612  15.385  1.00  0.00     0.011 C 
HETATM   22  C29 UNL     1      -4.715   7.507  14.373  1.00  0.00    -0.029 C 
HETATM   23  C30 UNL     1      -4.799   8.126  12.942  1.00  0.00     0.016 C 
ENDROOT
BRANCH   1  24
HETATM   24  C7  UNL     1      -2.006   7.576  14.074  1.00  0.00     0.017 C 
BRANCH  24  25
HETATM   25  C6  UNL     1      -1.967   7.600  12.511  1.00  0.00     0.043 C 
BRANCH  25  26
HETATM   26  C5  UNL     1      -1.247   8.743  11.772  1.00  0.00     0.141 C 
BRANCH  26  27
HETATM   27  C4  UNL     1       0.131   8.393  11.277  1.00  0.00     0.006 C 
HETATM   28  C2  UNL     1       0.527   8.278   9.991  1.00  0.00    -0.089 C 
HETATM   29  C1  UNL     1      -0.369   8.467   8.798  1.00  0.00     0.042 C 
HETATM   30  C3  UNL     1       1.953   7.941   9.650  1.00  0.00     0.042 C 
ENDBRANCH  26  27
BRANCH  26  31
HETATM   31  O1  UNL     1      -1.180   9.915  12.571  1.00  0.00    -0.392 OA
HETATM   32  H9  UNL     1      -0.622   9.686  13.345  1.00  0.00     0.210 HD
ENDBRANCH  26  31
ENDBRANCH  25  26
ENDBRANCH  24  25
BRANCH  24  33
HETATM   33  C8  UNL     1      -0.738   6.954  14.671  1.00  0.00     0.169 C 
BRANCH  33  34
HETATM   34  O2  UNL     1      -0.849   6.882  16.091  1.00  0.00    -0.400 OA
HETATM   35  H15 UNL     1      -0.094   6.350  16.404  1.00  0.00     0.209 HD
ENDBRANCH  33  34
ENDBRANCH  24  33
ENDBRANCH   1  24
TORSDOF 7
ENDMDL
