MODEL 1
REMARK minimizedAffinity -7.1640048
REMARK CNNscore 0.455116451
REMARK CNNaffinity 6.38542509
REMARK  9 active torsions:
REMARK  status: ('A' for Active; 'I' for Inactive)
REMARK    1  A    between atoms: C2_2  and  C3_3 
REMARK    2  A    between atoms: C2_2  and  C9_12 
REMARK    3  A    between atoms: C3_3  and  C4_4 
REMARK    4  A    between atoms: C4_4  and  C5_5 
REMARK    5  A    between atoms: C5_5  and  O1_6 
REMARK    6  A    between atoms: C5_5  and  C6_7 
REMARK    7  A    between atoms: C6_7  and  O2_9 
REMARK    8  A    between atoms: C6_7  and  C8_10 
REMARK    9  A    between atoms: C8_10  and  O3_11 
ROOT
HETATM    1  C9  UNL     1       7.203  10.746  15.441  1.00  0.00    -0.001 C 
HETATM    2  C10 UNL     1       8.410  10.558  14.474  1.00  0.00     0.007 C 
HETATM    3  C11 UNL     1       7.864   9.973  13.161  1.00  0.00     0.015 C 
HETATM    4  C12 UNL     1       6.338  10.155  13.249  1.00  0.00    -0.004 C 
HETATM    5  C13 UNL     1       6.028  11.621  12.807  1.00  0.00     0.021 C 
HETATM    6  C14 UNL     1       5.403   9.300  12.406  1.00  0.00     0.007 C 
HETATM    7  C15 UNL     1       4.134   8.997  12.785  1.00  0.00     0.007 C 
HETATM    8  C16 UNL     1       3.708   9.406  14.188  1.00  0.00     0.157 C 
HETATM    9  O4  UNL     1       2.611   9.082  14.631  1.00  0.00    -0.293 OA
HETATM   10  C17 UNL     1       4.655  10.194  15.088  1.00  0.00     0.094 C 
HETATM   11  C18 UNL     1       6.112   9.852  14.776  1.00  0.00    -0.022 C 
HETATM   12  C19 UNL     1       6.370   8.360  15.159  1.00  0.00     0.017 C 
HETATM   13  C20 UNL     1       3.103   8.244  11.900  1.00  0.00    -0.007 C 
HETATM   14  C21 UNL     1       2.936   6.824  12.482  1.00  0.00     0.021 C 
HETATM   15  C22 UNL     1       1.741   8.988  11.867  1.00  0.00     0.022 C 
HETATM   16  C23 UNL     1       0.722   8.494  10.841  1.00  0.00     0.080 C 
HETATM   17  C24 UNL     1       1.212   7.450   9.869  1.00  0.00     0.135 C 
HETATM   18  O5  UNL     1       0.405   6.638   9.407  1.00  0.00    -0.297 OA
HETATM   19  C25 UNL     1       2.666   7.490   9.392  1.00  0.00     0.018 C 
HETATM   20  C26 UNL     1       2.660   8.252   8.049  1.00  0.00     0.023 C 
HETATM   21  C27 UNL     1       3.122   6.042   9.107  1.00  0.00     0.023 C 
HETATM   22  C28 UNL     1       3.588   8.242  10.408  1.00  0.00     0.021 C 
HETATM   23  C29 UNL     1       5.057   7.835  10.317  1.00  0.00     0.090 C 
HETATM   24  C30 UNL     1       5.898   8.823  11.077  1.00  0.00     0.157 C 
HETATM   25  O6  UNL     1       6.983   9.188  10.627  1.00  0.00    -0.293 OA
ENDROOT
BRANCH   1  26
HETATM   26  C2  UNL     1       7.624  10.542  16.931  1.00  0.00    -0.014 C 
HETATM   27  C1  UNL     1       6.986  11.572  17.866  1.00  0.00     0.010 C 
BRANCH  26  28
HETATM   28  C3  UNL     1       9.177  10.601  17.040  1.00  0.00     0.007 C 
BRANCH  28  29
HETATM   29  C4  UNL     1       9.749  10.499  18.458  1.00  0.00     0.035 C 
BRANCH  29  30
HETATM   30  C5  UNL     1      11.228  10.873  18.641  1.00  0.00     0.154 C 
BRANCH  30  31
HETATM   31  O1  UNL     1      11.802  10.962  17.314  1.00  0.00    -0.392 OA
HETATM   32  H10 UNL     1      11.740  10.078  16.909  1.00  0.00     0.210 HD
ENDBRANCH  30  31
BRANCH  30  33
HETATM   33  C6  UNL     1      11.574  12.217  19.347  1.00  0.00     0.101 C 
HETATM   34  C7  UNL     1      10.883  12.389  20.705  1.00  0.00     0.051 C 
BRANCH  33  35
HETATM   35  O2  UNL     1      11.057  13.276  18.493  1.00  0.00    -0.385 OA
HETATM   36  H14 UNL     1      10.144  12.983  18.285  1.00  0.00     0.210 HD
ENDBRANCH  33  35
BRANCH  33  37
HETATM   37  C8  UNL     1      13.087  12.482  19.469  1.00  0.00     0.204 C 
BRANCH  37  38
HETATM   38  O3  UNL     1      13.542  12.135  20.778  1.00  0.00    -0.398 OA
HETATM   39  H17 UNL     1      12.808  12.412  21.369  1.00  0.00     0.209 HD
ENDBRANCH  37  38
ENDBRANCH  33  37
ENDBRANCH  30  33
ENDBRANCH  29  30
ENDBRANCH  28  29
ENDBRANCH  26  28
ENDBRANCH   1  26
TORSDOF 9
ENDMDL
