MODEL 1
REMARK minimizedAffinity -8.02742481
REMARK CNNscore 0.776530027
REMARK CNNaffinity 6.99223709
REMARK  6 active torsions:
REMARK  status: ('A' for Active; 'I' for Inactive)
REMARK    1  A    between atoms: C5_5  and  C6_6 
REMARK    2  A    between atoms: C6_6  and  C7_7 
REMARK    3  A    between atoms: C13_15  and  O3_16 
REMARK    4  A    between atoms: C24_28  and  C25_29 
REMARK    5  A    between atoms: C25_29  and  O5_30 
REMARK    6  A    between atoms: C25_29  and  C26_31 
ROOT
HETATM    1  C6  UNL     1      -1.625  52.832  -8.771  1.00  0.00     0.033 C 
ENDROOT
BRANCH   1   2
HETATM    2  C5  UNL     1      -1.556  53.379 -10.226  1.00  0.00    -0.002 C 
HETATM    3  C4  UNL     1      -2.769  54.276 -10.564  1.00  0.00     0.010 C 
HETATM    4  C3  UNL     1      -4.084  53.495 -10.565  1.00  0.00     0.034 C 
HETATM    5  C2  UNL     1      -3.879  52.069 -11.030  1.00  0.00    -0.082 C 
HETATM    6  C1  UNL     1      -4.615  51.074 -10.508  1.00  0.00     0.015 C 
HETATM    7  C24 UNL     1      -2.762  51.921 -12.074  1.00  0.00     0.054 C 
HETATM    8  C21 UNL     1      -1.375  52.261 -11.363  1.00  0.00    -0.034 C 
HETATM    9  C22 UNL     1      -0.396  52.865 -12.406  1.00  0.00     0.016 C 
HETATM   10  C23 UNL     1      -0.700  50.995 -10.798  1.00  0.00     0.016 C 
BRANCH   7  11
HETATM   11  C25 UNL     1      -2.834  50.596 -12.916  1.00  0.00     0.150 C 
BRANCH  11  12
HETATM   12  O5  UNL     1      -4.053  49.913 -12.596  1.00  0.00    -0.391 OA
HETATM   13  H39 UNL     1      -4.099  49.115 -13.146  1.00  0.00     0.210 HD
ENDBRANCH  11  12
BRANCH  11  14
HETATM   14  C26 UNL     1      -2.898  50.786 -14.403  1.00  0.00     0.018 C 
HETATM   15  C27 UNL     1      -2.574  49.876 -15.335  1.00  0.00     0.018 C 
HETATM   16  C28 UNL     1      -2.115  48.476 -15.191  1.00  0.00     0.071 C 
HETATM   17  C30 UNL     1      -2.680  50.166 -16.786  1.00  0.00     0.289 C 
HETATM   18  C29 UNL     1      -2.537  47.904 -16.522  1.00  0.00     0.183 C 
HETATM   19  O6  UNL     1      -2.523  48.989 -17.452  1.00  0.00    -0.317 OA
HETATM   20  O7  UNL     1      -2.855  51.255 -17.294  1.00  0.00    -0.260 OA
ENDBRANCH  11  14
ENDBRANCH   7  11
ENDBRANCH   1   2
BRANCH   1  21
HETATM   21  C7  UNL     1      -0.814  53.630  -7.782  1.00  0.00    -0.021 C 
HETATM   22  C8  UNL     1       0.529  53.682  -7.689  1.00  0.00    -0.060 C 
HETATM   23  C9  UNL     1       1.208  54.521  -6.638  1.00  0.00     0.041 C 
HETATM   24  C12 UNL     1       1.503  52.977  -8.595  1.00  0.00     0.205 C 
HETATM   25  C10 UNL     1       2.217  55.448  -7.309  1.00  0.00     0.076 C 
HETATM   26  C11 UNL     1       3.179  54.652  -8.211  1.00  0.00     0.199 C 
HETATM   27  O1  UNL     1       2.405  53.920  -9.177  1.00  0.00    -0.348 OA
HETATM   28  O2  UNL     1       3.933  53.725  -7.384  1.00  0.00    -0.313 OA
HETATM   29  C16 UNL     1       4.184  55.583  -8.995  1.00  0.00     0.115 C 
HETATM   30  C13 UNL     1       5.346  53.817  -7.630  1.00  0.00     0.196 C 
HETATM   31  C14 UNL     1       5.586  53.525  -9.116  1.00  0.00     0.075 C 
HETATM   32  C18 UNL     1       5.827  55.264  -7.267  1.00  0.00     0.111 C 
HETATM   33  C15 UNL     1       5.040  54.697  -9.930  1.00  0.00     0.049 C 
HETATM   34  O4  UNL     1       5.084  56.235  -8.053  1.00  0.00    -0.359 OA
HETATM   35  C19 UNL     1       7.321  55.485  -7.556  1.00  0.00     0.051 C 
HETATM   36  C20 UNL     1       5.594  55.588  -5.783  1.00  0.00     0.051 C 
HETATM   37  C17 UNL     1       3.510  56.682  -9.816  1.00  0.00     0.052 C 
BRANCH  30  38
HETATM   38  O3  UNL     1       5.982  52.816  -6.861  1.00  0.00    -0.363 OA
HETATM   39  H17 UNL     1       5.540  52.853  -5.996  1.00  0.00     0.213 HD
ENDBRANCH  30  38
ENDBRANCH   1  21
TORSDOF 6
ENDMDL
