MODEL 1
REMARK minimizedAffinity -9.62922478
REMARK  6 active torsions:
REMARK  status: ('A' for Active; 'I' for Inactive)
REMARK    1  A    between atoms: C2_2  and  N1_3 
REMARK    2  A    between atoms: N1_3  and  C3_4 
REMARK    3  A    between atoms: N1_3  and  C22_25 
REMARK    4  A    between atoms: C3_4  and  C4_5 
REMARK    5  A    between atoms: C5_6  and  C6_7 
REMARK    6  A    between atoms: C9_11  and  C10_12 
ROOT
HETATM    1  C6  UNL     1      -0.879  49.962 -20.917  1.00  0.00    -0.033 C 
HETATM    2  C7  UNL     1      -1.802  49.773 -21.933  1.00  0.00     0.036 C 
HETATM    3  C8  UNL     1      -1.776  50.585 -23.077  1.00  0.00     0.043 C 
HETATM    4 CL1  UNL     1      -3.128  50.343 -24.149  1.00  0.00    -0.084 Cl
HETATM    5  C9  UNL     1      -0.783  51.589 -23.293  1.00  0.00    -0.010 C 
HETATM    6  C20 UNL     1       0.069  51.821 -22.192  1.00  0.00     0.043 C 
HETATM    7 CL2  UNL     1       1.135  53.169 -22.011  1.00  0.00    -0.084 Cl
HETATM    8  C21 UNL     1       0.042  50.995 -21.051  1.00  0.00     0.036 C 
ENDROOT
BRANCH   1   9
HETATM    9  C5  UNL     1      -0.905  49.098 -19.735  1.00  0.00     0.009 C 
HETATM   10  C4  UNL     1      -0.674  49.491 -18.471  1.00  0.00    -0.007 C 
BRANCH  10  11
HETATM   11  C3  UNL     1      -0.413  50.886 -17.969  1.00  0.00     0.144 C 
BRANCH  11  12
HETATM   12  N1  UNL     1      -0.097  50.928 -16.535  1.00  0.00    -0.405 N 
BRANCH  12  13
HETATM   13  C2  UNL     1      -0.703  49.807 -15.809  1.00  0.00     0.113 C 
HETATM   14  C1  UNL     1       0.200  48.619 -15.502  1.00  0.00     0.026 C 
ENDBRANCH  12  13
BRANCH  12  15
HETATM   15  C22 UNL     1       1.286  51.324 -16.190  1.00  0.00     0.079 C 
HETATM   16  C23 UNL     1       1.582  51.609 -14.706  1.00  0.00     0.025 C 
HETATM   17  C24 UNL     1       3.084  51.771 -14.425  1.00  0.00     0.002 C 
HETATM   18  C25 UNL     1       3.926  52.047 -15.668  1.00  0.00     0.000 C 
HETATM   19  C26 UNL     1       3.215  52.988 -16.628  1.00  0.00     0.002 C 
HETATM   20  C27 UNL     1       1.837  52.477 -17.064  1.00  0.00     0.025 C 
ENDBRANCH  12  15
ENDBRANCH  11  12
ENDBRANCH  10  11
ENDBRANCH   1   9
BRANCH   5  21
HETATM   21  C10 UNL     1      -0.778  52.325 -24.649  1.00  0.00     0.030 C 
HETATM   22  C11 UNL     1       0.471  53.067 -25.224  1.00  0.00    -0.005 C 
HETATM   23  C12 UNL     1       1.501  52.112 -25.873  1.00  0.00     0.010 C 
HETATM   24  C16 UNL     1      -0.020  54.026 -26.343  1.00  0.00     0.010 C 
HETATM   25  C13 UNL     1       0.861  51.307 -27.007  1.00  0.00    -0.013 C 
HETATM   26  C14 UNL     1       0.352  52.267 -28.090  1.00  0.00     0.009 C 
HETATM   27  C19 UNL     1      -0.306  50.508 -26.415  1.00  0.00     0.010 C 
HETATM   28  C15 UNL     1      -0.678  53.232 -27.485  1.00  0.00    -0.013 C 
HETATM   29  C17 UNL     1      -1.854  52.412 -26.934  1.00  0.00     0.010 C 
HETATM   30  C18 UNL     1      -1.362  51.458 -25.825  1.00  0.00    -0.005 C 
ENDBRANCH   5  21
TORSDOF 6
ENDMDL
