MODEL 1
REMARK minimizedAffinity -6.58089399
REMARK  4 active torsions:
REMARK  status: ('A' for Active; 'I' for Inactive)
REMARK    1  A    between atoms: N1_1  and  C1_2 
REMARK    2  A    between atoms: C2_5  and  O1_6 
REMARK    3  A    between atoms: O1_6  and  C3_7 
REMARK    4  A    between atoms: C3_7  and  C4_8 
ROOT
HETATM    1  C1  UNL     1      -1.021   1.888  11.145  1.00  0.00     0.158 A 
HETATM    2  N2  UNL     1      -0.491   3.028  11.620  1.00  0.00    -0.311 N 
ATOM      3  H2  UNL     1       0.519   3.171  11.621  1.00  0.00     0.170 HD
HETATM    4  C2  UNL     1      -1.328   3.987  12.099  1.00  0.00     0.176 A 
HETATM    5  C8  UNL     1      -2.706   3.771  12.069  1.00  0.00     0.129 A 
HETATM    6  N3  UNL     1      -3.805   4.509  12.457  1.00  0.00    -0.346 N 
ATOM      7  H3  UNL     1      -3.811   5.440  12.876  1.00  0.00     0.167 HD
HETATM    8  C9  UNL     1      -4.843   3.752  12.169  1.00  0.00     0.182 A 
HETATM    9  N4  UNL     1      -4.465   2.561  11.611  1.00  0.00    -0.337 N 
HETATM   10  C10 UNL     1      -3.103   2.557  11.539  1.00  0.00     0.140 A 
HETATM   11  N5  UNL     1      -2.325   1.581  11.057  1.00  0.00    -0.317 N 
ATOM     12  H5  UNL     1      -2.681   0.707  10.668  1.00  0.00     0.170 HD
HETATM   13  H8  UNL     1      -5.069   1.813  11.308  1.00  0.00     0.168 HD
ENDROOT
BRANCH   4  14
HETATM   14  O1  UNL     1      -0.820   5.169  12.596  1.00  0.00    -0.329 OA
BRANCH  14  15
HETATM   15  C3  UNL     1       0.570   5.337  12.321  1.00  0.00     0.223 C 
BRANCH  15  16
HETATM   16  C4  UNL     1       0.687   6.341  11.208  1.00  0.00     0.008 A 
HETATM   17  C5  UNL     1       1.396   6.260  10.022  1.00  0.00     0.036 A 
HETATM   18  C6  UNL     1       1.235   7.423   9.231  1.00  0.00     0.018 A 
HETATM   19 BR1  UNL     1       2.082   7.618   7.558  1.00  0.00    -0.051 Br
HETATM   20  C7  UNL     1       0.416   8.361   9.805  1.00  0.00     0.069 A 
HETATM   21  S1  UNL     1      -0.170   7.827  11.322  1.00  0.00    -0.103 SA
ENDBRANCH  15  16
ENDBRANCH  14  15
ENDBRANCH   4  14
BRANCH   1  22
HETATM   22  N1  UNL     1      -0.129   0.952  10.663  1.00  0.00    -0.274 NA
HETATM   23  H1  UNL     1      -0.580   0.356   9.983  1.00  0.00     0.127 HD
HETATM   24  H2  UNL     1       0.734   1.399  10.389  1.00  0.00     0.127 HD
ENDBRANCH   1  22
TORSDOF 4
ENDMDL
