MODEL 1
REMARK minimizedAffinity -5.99737501
REMARK CNNscore 0.770487547
REMARK CNNaffinity 6.4122467
REMARK  5 active torsions:
REMARK  status: ('A' for Active; 'I' for Inactive)
REMARK    1  A    between atoms: C2_2  and  C4_4 
REMARK    2  A    between atoms: C10_10  and  C11_11 
REMARK    3  A    between atoms: C11_11  and  O2_13 
REMARK    4  A    between atoms: C20_22  and  C22_24 
REMARK    5  A    between atoms: C22_24  and  O3_25 
ROOT
HETATM    1  C4  UNL     1     -18.503   1.432  16.023  1.00  0.00     0.025 C 
HETATM    2  C5  UNL     1     -19.860   1.835  16.640  1.00  0.00     0.037 C 
HETATM    3  C6  UNL     1     -20.357   0.561  17.239  1.00  0.00    -0.023 C 
HETATM    4  C7  UNL     1     -19.393  -0.362  17.318  1.00  0.00    -0.078 C 
HETATM    5  C8  UNL     1     -19.503  -1.738  17.877  1.00  0.00     0.036 C 
HETATM    6  C9  UNL     1     -18.819  -2.757  16.955  1.00  0.00     0.026 C 
HETATM    7  C10 UNL     1     -17.351  -2.361  16.557  1.00  0.00     0.057 C 
HETATM    8  C12 UNL     1     -17.440  -0.952  15.846  1.00  0.00     0.014 C 
HETATM    9  C13 UNL     1     -16.119  -0.469  15.219  1.00  0.00     0.007 C 
HETATM   10  C14 UNL     1     -15.416  -1.525  14.370  1.00  0.00     0.007 C 
HETATM   11  C15 UNL     1     -15.263  -2.864  15.107  1.00  0.00     0.007 C 
HETATM   12  C16 UNL     1     -14.346  -3.898  14.375  1.00  0.00    -0.018 C 
HETATM   13  C17 UNL     1     -14.799  -4.241  12.936  1.00  0.00     0.020 C 
HETATM   14  C18 UNL     1     -12.869  -3.565  14.269  1.00  0.00    -0.020 C 
HETATM   15  C19 UNL     1     -12.099  -4.640  14.523  1.00  0.00    -0.018 C 
HETATM   16  C20 UNL     1     -12.905  -5.848  14.981  1.00  0.00    -0.001 C 
HETATM   17  C21 UNL     1     -12.261  -6.462  16.236  1.00  0.00     0.022 C 
HETATM   18  C23 UNL     1     -14.203  -5.096  15.355  1.00  0.00     0.012 C 
HETATM   19  C24 UNL     1     -15.518  -5.824  15.579  1.00  0.00     0.007 C 
HETATM   20  C25 UNL     1     -16.492  -4.846  16.273  1.00  0.00     0.011 C 
HETATM   21  C26 UNL     1     -16.669  -3.446  15.573  1.00  0.00    -0.021 C 
HETATM   22  C27 UNL     1     -17.610  -3.711  14.359  1.00  0.00     0.017 C 
HETATM   23  C28 UNL     1     -18.081   0.126  16.763  1.00  0.00     0.028 C 
ENDROOT
BRANCH   7  24
HETATM   24  C11 UNL     1     -16.575  -2.306  17.897  1.00  0.00     0.149 C 
HETATM   25  O1  UNL     1     -16.115  -1.302  18.421  1.00  0.00    -0.649 OA
BRANCH  24  26
HETATM   26  O2  UNL     1     -16.430  -3.479  18.533  1.00  0.00    -0.776 OA
HETATM   27  H14 UNL     1     -15.939  -3.244  19.349  1.00  0.00     0.167 HD
ENDBRANCH  24  26
ENDBRANCH   7  24
BRANCH   1  28
HETATM   28  C2  UNL     1     -17.496   2.575  16.040  1.00  0.00    -0.088 C 
HETATM   29  C1  UNL     1     -16.692   2.804  14.987  1.00  0.00     0.014 C 
HETATM   30  C3  UNL     1     -17.428   3.458  17.257  1.00  0.00     0.043 C 
ENDBRANCH   1  28
BRANCH  16  31
HETATM   31  C22 UNL     1     -13.074  -6.920  13.885  1.00  0.00     0.177 C 
BRANCH  31  32
HETATM   32  O3  UNL     1     -11.908  -7.055  13.073  1.00  0.00    -0.400 OA
HETATM   33  H31 UNL     1     -11.230  -7.508  13.601  1.00  0.00     0.209 HD
ENDBRANCH  31  32
ENDBRANCH  16  31
TORSDOF 5
ENDMDL
