MODEL 1
REMARK minimizedAffinity -8.67218018
REMARK CNNscore 0.41203019
REMARK CNNaffinity 6.24462128
REMARK  11 active torsions:
REMARK  status: ('A' for Active; 'I' for Inactive)
REMARK    1  A    between atoms: C3_3  and  O1_4 
REMARK    2  A    between atoms: N1_14  and  O2_16 
REMARK    3  A    between atoms: O2_16  and  C13_17 
REMARK    4  A    between atoms: C13_17  and  C14_18 
REMARK       I    between atoms: C14_18  and  N2_20 
REMARK    5  A    between atoms: N2_20  and  C15_21 
REMARK    6  A    between atoms: C15_21  and  C16_22 
REMARK    7  A    between atoms: C15_21  and  C17_25 
REMARK    8  A    between atoms: C16_22  and  O5_24 
REMARK    9  A    between atoms: C17_25  and  O6_26 
REMARK   10  A    between atoms: C17_25  and  C18_27 
REMARK   11  A    between atoms: C22_31  and  N3_32 
ROOT
HETATM    1  C1  UNL     1       2.020  51.248 -26.379  1.00  0.00     0.015 C 
HETATM    2  C2  UNL     1       1.202  51.794 -25.690  1.00  0.00    -0.078 C 
HETATM    3  C3  UNL     1       0.200  52.468 -24.848  1.00  0.00     0.128 C 
HETATM    4  C4  UNL     1       0.371  52.111 -23.363  1.00  0.00     0.052 C 
HETATM    5  C5  UNL     1      -1.027  52.212 -22.734  1.00  0.00     0.010 C 
HETATM    6  C6  UNL     1      -2.006  52.536 -23.876  1.00  0.00     0.002 C 
HETATM    7  C7  UNL     1      -3.429  51.961 -23.716  1.00  0.00    -0.004 C 
HETATM    8  C8  UNL     1      -4.149  52.476 -22.454  1.00  0.00     0.010 C 
HETATM    9  C9  UNL     1      -4.490  51.380 -21.451  1.00  0.00     0.035 C 
HETATM   10  C10 UNL     1      -5.215  50.206 -22.070  1.00  0.00    -0.069 C 
HETATM   11  C11 UNL     1      -6.059  49.479 -21.318  1.00  0.00     0.030 C 
HETATM   12  C12 UNL     1      -6.703  48.247 -21.842  1.00  0.00     0.032 C 
HETATM   13  N1  UNL     1      -7.696  47.747 -21.161  1.00  0.00    -0.271 N 
ATOM     14  H1  UNL     1      -8.057  48.147 -20.296  1.00  0.00     0.194 HD
HETATM   15  C24 UNL     1      -6.188  47.652 -23.140  1.00  0.00     0.060 C 
HETATM   16  C25 UNL     1      -4.881  48.288 -23.615  1.00  0.00     0.020 C 
HETATM   17  C26 UNL     1      -4.880  49.837 -23.520  1.00  0.00    -0.016 C 
HETATM   18  C27 UNL     1      -5.964  50.403 -24.469  1.00  0.00     0.020 C 
HETATM   19  C28 UNL     1      -3.461  50.415 -23.850  1.00  0.00     0.002 C 
HETATM   20  C29 UNL     1      -2.890  50.033 -25.225  1.00  0.00     0.007 C 
HETATM   21  C30 UNL     1      -1.448  50.535 -25.373  1.00  0.00     0.014 C 
HETATM   22  C31 UNL     1      -1.277  52.066 -25.166  1.00  0.00     0.003 C 
HETATM   23  C32 UNL     1      -1.816  52.809 -26.406  1.00  0.00     0.020 C 
ENDROOT
BRANCH   3  24
HETATM   24  O1  UNL     1       0.400  53.876 -24.995  1.00  0.00    -0.377 OA
HETATM   25  H2  UNL     1      -0.124  54.335 -24.319  1.00  0.00     0.211 HD
ENDBRANCH   3  24
BRANCH  13  26
HETATM   26  O2  UNL     1      -8.206  46.591 -21.770  1.00  0.00    -0.271 OA
BRANCH  26  27
HETATM   27  C13 UNL     1      -9.620  46.560 -21.599  1.00  0.00     0.303 C 
BRANCH  27  28
HETATM   28  C14 UNL     1     -10.299  46.118 -22.888  1.00  0.00     0.244 C 
HETATM   29  O3  UNL     1      -9.690  45.585 -23.812  1.00  0.00    -0.271 OA
HETATM   30  N2  UNL     1     -11.632  46.446 -22.972  1.00  0.00    -0.342 N 
HETATM   31  H16 UNL     1     -12.058  46.958 -22.204  1.00  0.00     0.163 HD
BRANCH  30  32
HETATM   32  C15 UNL     1     -12.380  46.306 -24.228  1.00  0.00     0.216 C 
BRANCH  32  33
HETATM   33  C16 UNL     1     -11.592  46.900 -25.402  1.00  0.00     0.166 C 
HETATM   34  O4  UNL     1     -11.274  48.074 -25.537  1.00  0.00    -0.648 OA
BRANCH  33  35
HETATM   35  O5  UNL     1     -11.162  45.993 -26.309  1.00  0.00    -0.775 OA
HETATM   36  H18 UNL     1     -10.726  46.535 -26.999  1.00  0.00     0.167 HD
ENDBRANCH  33  35
ENDBRANCH  32  33
BRANCH  32  37
HETATM   37  C17 UNL     1     -13.749  47.029 -24.168  1.00  0.00     0.184 C 
BRANCH  37  38
HETATM   38  O6  UNL     1     -14.121  47.312 -22.806  1.00  0.00    -0.388 OA
HETATM   39  H20 UNL     1     -15.092  47.321 -22.754  1.00  0.00     0.210 HD
ENDBRANCH  37  38
BRANCH  37  40
HETATM   40  C18 UNL     1     -14.873  46.253 -24.838  1.00  0.00    -0.025 A 
HETATM   41  C19 UNL     1     -14.600  45.118 -25.620  1.00  0.00     0.010 A 
HETATM   42  C20 UNL     1     -15.632  44.419 -26.252  1.00  0.00     0.003 A 
HETATM   43  C21 UNL     1     -16.953  44.847 -26.124  1.00  0.00     0.036 A 
HETATM   44  C22 UNL     1     -17.235  45.981 -25.352  1.00  0.00     0.103 A 
HETATM   45  C23 UNL     1     -16.205  46.680 -24.706  1.00  0.00     0.045 A 
BRANCH  44  46
HETATM   46  N3  UNL     1     -18.621  46.448 -25.225  1.00  0.00    -0.116 N 
HETATM   47  O7  UNL     1     -18.803  47.597 -24.794  1.00  0.00    -0.532 OA
HETATM   48  O8  UNL     1     -19.528  45.667 -25.546  1.00  0.00    -0.532 OA
ENDBRANCH  44  46
ENDBRANCH  37  40
ENDBRANCH  32  37
ENDBRANCH  30  32
ENDBRANCH  27  28
ENDBRANCH  26  27
ENDBRANCH  13  26
TORSDOF 11
ENDMDL
