MODEL 1
REMARK minimizedAffinity -9.78346348
REMARK  9 active torsions:
REMARK  status: ('A' for Active; 'I' for Inactive)
REMARK    1  A    between atoms: C2_2  and  C3_3 
REMARK    2  A    between atoms: C2_2  and  C9_12 
REMARK    3  A    between atoms: C3_3  and  C4_4 
REMARK    4  A    between atoms: C4_4  and  C5_5 
REMARK    5  A    between atoms: C5_5  and  O1_6 
REMARK    6  A    between atoms: C5_5  and  C6_7 
REMARK    7  A    between atoms: C6_7  and  O2_9 
REMARK    8  A    between atoms: C6_7  and  C8_10 
REMARK    9  A    between atoms: C8_10  and  O3_11 
ROOT
HETATM    1  C9  UNL     1       1.207   6.611  12.372  1.00  0.00    -0.002 C 
HETATM    2  C10 UNL     1       1.047   5.420  11.382  1.00  0.00     0.007 C 
HETATM    3  C11 UNL     1      -0.416   4.950  11.451  1.00  0.00     0.015 C 
HETATM    4  C12 UNL     1      -0.984   5.602  12.724  1.00  0.00    -0.005 C 
HETATM    5  C13 UNL     1      -0.553   4.702  13.925  1.00  0.00     0.021 C 
HETATM    6  C14 UNL     1      -2.485   5.776  12.902  1.00  0.00    -0.000 C 
HETATM    7  C15 UNL     1      -3.020   6.803  13.608  1.00  0.00    -0.060 C 
HETATM    8  C16 UNL     1      -2.077   7.847  14.243  1.00  0.00     0.036 C 
HETATM    9  C17 UNL     1      -0.561   7.722  13.976  1.00  0.00     0.015 C 
HETATM   10  C18 UNL     1      -0.275   7.011  12.651  1.00  0.00    -0.028 C 
HETATM   11  C19 UNL     1      -0.795   7.902  11.478  1.00  0.00     0.016 C 
HETATM   12  C20 UNL     1      -4.558   7.064  13.743  1.00  0.00    -0.014 C 
HETATM   13  C21 UNL     1      -4.829   8.369  12.937  1.00  0.00     0.020 C 
HETATM   14  C22 UNL     1      -4.966   7.324  15.222  1.00  0.00     0.021 C 
HETATM   15  C23 UNL     1      -5.422   6.072  15.949  1.00  0.00     0.080 C 
HETATM   16  C24 UNL     1      -6.685   5.533  15.320  1.00  0.00     0.135 C 
HETATM   17  O4  UNL     1      -7.524   4.956  16.013  1.00  0.00    -0.297 OA
HETATM   18  C25 UNL     1      -6.872   5.721  13.807  1.00  0.00     0.018 C 
HETATM   19  C26 UNL     1      -7.821   6.915  13.586  1.00  0.00     0.023 C 
HETATM   20  C27 UNL     1      -7.613   4.479  13.254  1.00  0.00     0.023 C 
HETATM   21  C28 UNL     1      -5.467   5.920  13.111  1.00  0.00     0.020 C 
HETATM   22  C29 UNL     1      -4.720   4.581  13.023  1.00  0.00     0.090 C 
HETATM   23  C30 UNL     1      -3.389   4.735  12.355  1.00  0.00     0.157 C 
HETATM   24  O5  UNL     1      -3.044   3.976  11.455  1.00  0.00    -0.293 OA
ENDROOT
BRANCH   1  25
HETATM   25  C2  UNL     1       2.223   7.673  11.844  1.00  0.00    -0.014 C 
HETATM   26  C1  UNL     1       2.598   8.698  12.919  1.00  0.00     0.010 C 
BRANCH  25  27
HETATM   27  C3  UNL     1       3.504   6.969  11.310  1.00  0.00     0.007 C 
BRANCH  27  28
HETATM   28  C4  UNL     1       3.789   7.245   9.824  1.00  0.00     0.035 C 
BRANCH  28  29
HETATM   29  C5  UNL     1       2.700   6.772   8.843  1.00  0.00     0.154 C 
BRANCH  29  30
HETATM   30  O1  UNL     1       3.239   5.685   8.076  1.00  0.00    -0.392 OA
HETATM   31  H10 UNL     1       3.663   6.107   7.301  1.00  0.00     0.210 HD
ENDBRANCH  29  30
BRANCH  29  32
HETATM   32  C6  UNL     1       2.101   7.830   7.876  1.00  0.00     0.101 C 
HETATM   33  C7  UNL     1       1.769   7.181   6.522  1.00  0.00     0.051 C 
BRANCH  32  34
HETATM   34  O2  UNL     1       3.106   8.828   7.602  1.00  0.00    -0.385 OA
HETATM   35  H14 UNL     1       2.621   9.552   7.153  1.00  0.00     0.210 HD
ENDBRANCH  32  34
BRANCH  32  36
HETATM   36  C8  UNL     1       0.860   8.531   8.460  1.00  0.00     0.204 C 
BRANCH  36  37
HETATM   37  O3  UNL     1      -0.291   8.187   7.680  1.00  0.00    -0.398 OA
HETATM   38  H17 UNL     1      -1.055   8.628   8.092  1.00  0.00     0.209 HD
ENDBRANCH  36  37
ENDBRANCH  32  36
ENDBRANCH  29  32
ENDBRANCH  28  29
ENDBRANCH  27  28
ENDBRANCH  25  27
ENDBRANCH   1  25
TORSDOF 9
ENDMDL
