MODEL 1
REMARK minimizedAffinity -9.40266418
REMARK  13 active torsions:
REMARK  status: ('A' for Active; 'I' for Inactive)
REMARK    1  A    between atoms: C2_2  and  C3_3 
REMARK    2  A    between atoms: C4_5  and  C5_6 
REMARK    3  A    between atoms: C5_6  and  C6_7 
REMARK    4  A    between atoms: C6_7  and  C7_8 
REMARK    5  A    between atoms: C7_8  and  C9_10 
REMARK    6  A    between atoms: C17_18  and  C18_19 
REMARK    7  A    between atoms: C18_19  and  O2_21 
REMARK    8  A    between atoms: C18_19  and  C20_22 
REMARK    9  A    between atoms: C20_22  and  O3_23 
REMARK   10  A    between atoms: C21_24  and  C22_25 
REMARK   11  A    between atoms: C22_25  and  C23_26 
REMARK   12  A    between atoms: C23_26  and  C24_27 
REMARK   13  A    between atoms: C24_27  and  O5_29 
ROOT
HETATM    1  C9  UNL     1      -4.089  50.102 -24.600  1.00  0.00    -0.002 C 
HETATM    2  C10 UNL     1      -4.276  51.616 -24.409  1.00  0.00     0.006 C 
HETATM    3  C11 UNL     1      -4.137  51.878 -22.892  1.00  0.00     0.011 C 
HETATM    4  C12 UNL     1      -3.812  50.509 -22.227  1.00  0.00    -0.032 C 
HETATM    5  C13 UNL     1      -5.178  49.889 -21.775  1.00  0.00     0.016 C 
HETATM    6  C14 UNL     1      -2.921  50.561 -20.940  1.00  0.00     0.004 C 
HETATM    7  C15 UNL     1      -3.273  51.690 -19.976  1.00  0.00     0.007 C 
HETATM    8  C16 UNL     1      -2.628  51.377 -18.634  1.00  0.00     0.009 C 
HETATM    9  C17 UNL     1      -1.085  51.439 -18.655  1.00  0.00     0.031 C 
HETATM   10  C21 UNL     1      -0.426  50.883 -19.974  1.00  0.00    -0.025 A 
HETATM   11  C25 UNL     1      -0.653  49.471 -20.483  1.00  0.00     0.021 A 
HETATM   12  C26 UNL     1      -1.411  50.577 -21.169  1.00  0.00    -0.027 A 
HETATM   13  C27 UNL     1      -1.037  51.035 -22.546  1.00  0.00     0.011 C 
HETATM   14  C28 UNL     1      -1.674  50.197 -23.645  1.00  0.00     0.011 C 
HETATM   15  C29 UNL     1      -3.138  49.719 -23.415  1.00  0.00    -0.032 C 
HETATM   16  C30 UNL     1      -3.131  48.195 -23.206  1.00  0.00     0.016 C 
ENDROOT
BRANCH   1  17
HETATM   17  C7  UNL     1      -3.842  49.595 -26.051  1.00  0.00    -0.014 C 
HETATM   18  C8  UNL     1      -4.565  48.312 -26.464  1.00  0.00     0.010 C 
BRANCH  17  19
HETATM   19  C6  UNL     1      -2.332  49.404 -26.360  1.00  0.00     0.008 C 
BRANCH  19  20
HETATM   20  C5  UNL     1      -1.691  50.562 -27.135  1.00  0.00     0.028 C 
BRANCH  20  21
HETATM   21  C4  UNL     1      -0.300  50.844 -26.633  1.00  0.00    -0.017 C 
HETATM   22  C2  UNL     1       0.563  51.759 -27.110  1.00  0.00    -0.028 C 
HETATM   23  C1  UNL     1       0.358  52.693 -28.263  1.00  0.00     0.051 C 
BRANCH  22  24
HETATM   24  C3  UNL     1       1.887  51.861 -26.430  1.00  0.00     0.265 C 
HETATM   25  O1  UNL     1       2.791  51.056 -26.620  1.00  0.00    -0.302 OA
ENDBRANCH  22  24
ENDBRANCH  20  21
ENDBRANCH  19  20
ENDBRANCH  17  19
ENDBRANCH   1  17
BRANCH  10  26
HETATM   26  C22 UNL     1       0.925  51.580 -20.282  1.00  0.00     0.021 C 
BRANCH  26  27
HETATM   27  C23 UNL     1       0.983  52.651 -21.373  1.00  0.00     0.111 C 
BRANCH  27  28
HETATM   28  C24 UNL     1       1.406  54.026 -20.944  1.00  0.00     0.139 C 
HETATM   29  O4  UNL     1       1.855  54.888 -21.683  1.00  0.00    -0.650 OA
BRANCH  28  30
HETATM   30  O5  UNL     1       1.152  54.307 -19.655  1.00  0.00    -0.776 OA
HETATM   31  H39 UNL     1       1.461  55.236 -19.571  1.00  0.00     0.167 HD
ENDBRANCH  28  30
ENDBRANCH  27  28
ENDBRANCH  26  27
ENDBRANCH  10  26
BRANCH   9  32
HETATM   32  C18 UNL     1      -0.482  50.924 -17.289  1.00  0.00     0.080 C 
HETATM   33  C19 UNL     1       0.026  49.473 -17.406  1.00  0.00     0.048 C 
BRANCH  32  34
HETATM   34  O2  UNL     1      -1.512  50.884 -16.279  1.00  0.00    -0.388 OA
HETATM   35  H31 UNL     1      -2.200  50.265 -16.579  1.00  0.00     0.210 HD
ENDBRANCH  32  34
BRANCH  32  36
HETATM   36  C20 UNL     1       0.656  51.788 -16.707  1.00  0.00     0.201 C 
BRANCH  36  37
HETATM   37  O3  UNL     1       0.649  53.084 -17.301  1.00  0.00    -0.398 OA
HETATM   38  H34 UNL     1      -0.294  53.221 -17.538  1.00  0.00     0.209 HD
ENDBRANCH  36  37
ENDBRANCH  32  36
ENDBRANCH   9  32
TORSDOF 13
ENDMDL
