MODEL 1
REMARK minimizedAffinity -7.93856955
REMARK CNNscore 0.587715685
REMARK CNNaffinity 7.40031195
REMARK  12 active torsions:
REMARK  status: ('A' for Active; 'I' for Inactive)
REMARK    1  A    between atoms: O1_2  and  C2_3 
REMARK    2  A    between atoms: C2_3  and  C3_4 
REMARK    3  A    between atoms: C2_3  and  C7_8 
REMARK    4  A    between atoms: C7_8  and  C8_9 
REMARK    5  A    between atoms: C8_9  and  C10_11 
REMARK    6  A    between atoms: C28_30  and  O3_31 
REMARK    7  A    between atoms: O3_31  and  C29_32 
REMARK    8  A    between atoms: C30_34  and  C31_35 
REMARK    9  A    between atoms: C31_35  and  O5_36 
REMARK   10  A    between atoms: C32_37  and  O6_38 
REMARK   11  A    between atoms: C33_39  and  O7_40 
REMARK   12  A    between atoms: C34_41  and  O8_42 
ROOT
HETATM    1  C10 UNL     1      -5.467   7.095  14.960  1.00  0.00    -0.002 C 
HETATM    2  C11 UNL     1      -6.118   7.763  13.705  1.00  0.00     0.006 C 
HETATM    3  C12 UNL     1      -4.983   8.416  12.887  1.00  0.00     0.011 C 
HETATM    4  C13 UNL     1      -3.695   7.829  13.489  1.00  0.00    -0.029 C 
HETATM    5  C14 UNL     1      -3.551   6.408  12.842  1.00  0.00     0.016 C 
HETATM    6  C15 UNL     1      -2.397   8.674  13.277  1.00  0.00     0.028 C 
HETATM    7  C16 UNL     1      -2.038   8.858  11.819  1.00  0.00    -0.021 C 
HETATM    8  C17 UNL     1      -0.813   8.564  11.352  1.00  0.00     0.008 C 
HETATM    9  C18 UNL     1       0.272   7.980  12.250  1.00  0.00     0.092 C 
HETATM   10  O2  UNL     1       0.744   9.118  13.007  1.00  0.00    -0.374 OA
HETATM   11  C19 UNL     1      -0.072   9.242  14.188  1.00  0.00     0.179 C 
HETATM   12  C20 UNL     1      -1.165   8.143  14.139  1.00  0.00    -0.004 C 
HETATM   13  C21 UNL     1      -1.597   7.806  15.589  1.00  0.00     0.014 C 
HETATM   14  C22 UNL     1      -2.942   7.078  15.769  1.00  0.00     0.011 C 
HETATM   15  C23 UNL     1      -4.077   7.800  15.022  1.00  0.00    -0.032 C 
HETATM   16  C24 UNL     1      -4.268   9.213  15.661  1.00  0.00     0.016 C 
HETATM   17  C25 UNL     1      -0.383   7.070  13.325  1.00  0.00     0.036 C 
HETATM   18  C26 UNL     1       0.634   6.200  14.083  1.00  0.00     0.011 C 
HETATM   19  C27 UNL     1       2.078   6.634  13.920  1.00  0.00     0.033 C 
HETATM   20  C28 UNL     1       2.499   6.635  12.450  1.00  0.00     0.136 C 
HETATM   21  C35 UNL     1       1.460   7.312  11.474  1.00  0.00     0.014 C 
HETATM   22  C36 UNL     1       2.179   8.345  10.567  1.00  0.00     0.021 C 
HETATM   23  C37 UNL     1       0.917   6.194  10.544  1.00  0.00     0.021 C 
ENDROOT
BRANCH  20  24
HETATM   24  O3  UNL     1       3.788   7.254  12.343  1.00  0.00    -0.352 OA
BRANCH  24  25
HETATM   25  C29 UNL     1       3.872   8.556  12.916  1.00  0.00     0.292 C 
HETATM   26  O4  UNL     1       4.988   9.265  12.373  1.00  0.00    -0.348 OA
HETATM   27  C30 UNL     1       6.257   8.612  12.564  1.00  0.00     0.179 C 
HETATM   28  C32 UNL     1       6.304   7.682  13.795  1.00  0.00     0.180 C 
HETATM   29  C33 UNL     1       5.462   8.309  14.901  1.00  0.00     0.183 C 
HETATM   30  C34 UNL     1       3.997   8.443  14.455  1.00  0.00     0.204 C 
BRANCH  27  31
HETATM   31  C31 UNL     1       6.700   7.870  11.295  1.00  0.00     0.198 C 
BRANCH  31  32
HETATM   32  O5  UNL     1       5.687   7.890  10.292  1.00  0.00    -0.398 OA
HETATM   33  H48 UNL     1       5.287   8.786  10.292  1.00  0.00     0.209 HD
ENDBRANCH  31  32
ENDBRANCH  27  31
BRANCH  28  34
HETATM   34  O6  UNL     1       7.657   7.499  14.235  1.00  0.00    -0.390 OA
HETATM   35  H50 UNL     1       7.577   7.132  15.140  1.00  0.00     0.210 HD
ENDBRANCH  28  34
BRANCH  29  36
HETATM   36  O7  UNL     1       5.560   7.508  16.089  1.00  0.00    -0.390 OA
HETATM   37  H52 UNL     1       4.927   7.890  16.729  1.00  0.00     0.210 HD
ENDBRANCH  29  36
BRANCH  30  38
HETATM   38  O8  UNL     1       3.444   9.597  15.116  1.00  0.00    -0.388 OA
HETATM   39  H54 UNL     1       3.848  10.386  14.705  1.00  0.00     0.210 HD
ENDBRANCH  30  38
ENDBRANCH  24  25
ENDBRANCH  20  24
BRANCH   1  40
HETATM   40  C8  UNL     1      -6.420   7.111  16.188  1.00  0.00    -0.011 C 
HETATM   41  C9  UNL     1      -6.945   5.727  16.573  1.00  0.00     0.010 C 
BRANCH  40  42
HETATM   42  C7  UNL     1      -7.600   8.114  16.035  1.00  0.00     0.040 C 
BRANCH  42  43
HETATM   43  C2  UNL     1      -9.047   7.581  16.162  1.00  0.00     0.144 C 
BRANCH  43  44
HETATM   44  O1  UNL     1      -9.830   8.685  16.652  1.00  0.00    -0.387 OA
HETATM   45  C1  UNL     1     -10.330   8.471  17.967  1.00  0.00     0.202 C 
ENDBRANCH  43  44
BRANCH  43  46
HETATM   46  C3  UNL     1      -9.632   7.154  14.844  1.00  0.00     0.007 C 
HETATM   47  C4  UNL     1     -10.516   7.813  14.066  1.00  0.00    -0.089 C 
HETATM   48  C5  UNL     1     -11.084   9.175  14.356  1.00  0.00     0.042 C 
HETATM   49  C6  UNL     1     -11.032   7.186  12.799  1.00  0.00     0.042 C 
ENDBRANCH  43  46
ENDBRANCH  42  43
ENDBRANCH  40  42
ENDBRANCH   1  40
TORSDOF 12
ENDMDL
