MODEL 1
REMARK minimizedAffinity -9.0745945
REMARK  11 active torsions:
REMARK  status: ('A' for Active; 'I' for Inactive)
REMARK    1  A    between atoms: C3_3  and  C4_4 
REMARK    2  A    between atoms: C5_5  and  C6_6 
REMARK    3  A    between atoms: C6_6  and  O1_7 
REMARK       I    between atoms: N1_12  and  C11_13 
REMARK    4  A    between atoms: C11_13  and  C12_15 
REMARK    5  A    between atoms: C12_15  and  C14_17 
REMARK    6  A    between atoms: C14_17  and  C15_19 
REMARK    7  A    between atoms: C15_19  and  C16_20 
REMARK    8  A    between atoms: C16_20  and  C17_21 
REMARK    9  A    between atoms: C17_21  and  C18_22 
REMARK   10  A    between atoms: C18_22  and  C19_23 
REMARK   11  A    between atoms: C27_32  and  O5_34 
ROOT
HETATM    1  C6  UNL     1       0.334  51.604 -17.526  1.00  0.00     0.069 C 
HETATM    2  C7  UNL     1      -0.441  51.296 -18.587  1.00  0.00    -0.026 C 
HETATM    3  C8  UNL     1      -0.781  52.345 -19.681  1.00  0.00     0.044 C 
HETATM    4  C9  UNL     1       0.459  53.048 -20.278  1.00  0.00     0.031 C 
HETATM    5  C10 UNL     1       0.749  52.292 -21.559  1.00  0.00     0.127 C 
HETATM    6  N1  UNL     1      -0.570  51.998 -22.079  1.00  0.00    -0.344 N 
HETATM    7  C11 UNL     1      -0.963  52.143 -23.399  1.00  0.00     0.231 C 
HETATM    8  O2  UNL     1      -2.144  52.325 -23.698  1.00  0.00    -0.273 OA
HETATM    9  C22 UNL     1      -1.551  51.866 -20.989  1.00  0.00     0.118 C 
HETATM   10  C23 UNL     1      -2.138  50.445 -20.859  1.00  0.00     0.102 C 
HETATM   11  C24 UNL     1      -2.699  49.763 -22.092  1.00  0.00     0.034 C 
HETATM   12  C25 UNL     1      -1.050  49.636 -20.195  1.00  0.00     0.156 C 
HETATM   13  O4  UNL     1      -0.180  48.985 -20.753  1.00  0.00    -0.296 OA
HETATM   14  C26 UNL     1      -1.099  49.924 -18.717  1.00  0.00     0.130 C 
HETATM   15  C27 UNL     1      -2.625  49.917 -18.458  1.00  0.00     0.130 C 
HETATM   16  C28 UNL     1      -3.082  50.710 -17.236  1.00  0.00     0.055 C 
HETATM   17  C29 UNL     1      -3.185  50.496 -19.759  1.00  0.00     0.179 C 
HETATM   18  O6  UNL     1      -4.322  50.934 -19.882  1.00  0.00    -0.293 OA
ENDROOT
BRANCH   7  19
HETATM   19  C12 UNL     1       0.120  52.116 -24.469  1.00  0.00     0.143 C 
HETATM   20  C13 UNL     1       0.354  53.558 -24.922  1.00  0.00     0.028 C 
BRANCH  19  21
HETATM   21  C14 UNL     1      -0.234  51.155 -25.602  1.00  0.00     0.139 C 
HETATM   22  O3  UNL     1       0.639  50.633 -26.303  1.00  0.00    -0.297 OA
BRANCH  21  23
HETATM   23  C15 UNL     1      -1.689  50.964 -25.985  1.00  0.00     0.079 C 
BRANCH  23  24
HETATM   24  C16 UNL     1      -1.940  49.536 -26.463  1.00  0.00     0.008 C 
BRANCH  24  25
HETATM   25  C17 UNL     1      -2.882  48.757 -25.544  1.00  0.00     0.004 C 
BRANCH  25  26
HETATM   26  C18 UNL     1      -4.228  48.421 -26.193  1.00  0.00     0.027 C 
BRANCH  26  27
HETATM   27  C19 UNL     1      -4.128  48.478 -27.690  1.00  0.00    -0.031 C 
HETATM   28  C20 UNL     1      -5.026  48.062 -28.596  1.00  0.00    -0.035 C 
HETATM   29  C21 UNL     1      -6.356  47.423 -28.348  1.00  0.00     0.036 C 
ENDBRANCH  26  27
ENDBRANCH  25  26
ENDBRANCH  24  25
ENDBRANCH  23  24
ENDBRANCH  21  23
ENDBRANCH  19  21
ENDBRANCH   7  19
BRANCH   1  30
HETATM   30  C5  UNL     1       0.642  50.708 -16.428  1.00  0.00     0.037 C 
HETATM   31  C4  UNL     1       1.657  50.794 -15.547  1.00  0.00     0.002 C 
BRANCH  31  32
HETATM   32  C3  UNL     1       2.757  51.730 -15.602  1.00  0.00    -0.004 C 
HETATM   33  C2  UNL     1       3.947  51.593 -14.998  1.00  0.00    -0.031 C 
HETATM   34  C1  UNL     1       4.417  50.497 -14.095  1.00  0.00     0.036 C 
ENDBRANCH  31  32
ENDBRANCH   1  30
BRANCH   1  35
HETATM   35  O1  UNL     1       0.767  52.904 -17.349  1.00  0.00    -0.360 OA
HETATM   36  H8  UNL     1       1.294  52.940 -16.529  1.00  0.00     0.217 HD
ENDBRANCH   1  35
BRANCH  15  37
HETATM   37  O5  UNL     1      -3.058  48.565 -18.319  1.00  0.00    -0.381 OA
HETATM   38  H39 UNL     1      -3.998  48.562 -18.052  1.00  0.00     0.211 HD
ENDBRANCH  15  37
TORSDOF 11
ENDMDL
