MODEL 1
REMARK minimizedAffinity -10.1172009
REMARK  10 active torsions:
REMARK  status: ('A' for Active; 'I' for Inactive)
REMARK    1  A    between atoms: C11_11  and  O1_12 
REMARK    2  A    between atoms: C12_13  and  C14_15 
REMARK    3  A    between atoms: C14_15  and  C15_16 
REMARK    4  A    between atoms: C15_16  and  O2_17 
REMARK    5  A    between atoms: C15_16  and  C16_18 
REMARK    6  A    between atoms: C16_18  and  O3_19 
REMARK    7  A    between atoms: C16_18  and  C17_20 
REMARK    8  A    between atoms: C17_20  and  O4_22 
REMARK    9  A    between atoms: C17_20  and  C19_23 
REMARK   10  A    between atoms: C19_23  and  O5_24 
ROOT
HETATM    1  C1  UNL     1      -7.102   7.196  14.591  1.00  0.00     0.015 C 
HETATM    2  C2  UNL     1      -6.133   6.021  14.595  1.00  0.00     0.019 C 
HETATM    3  C3  UNL     1      -6.601   4.883  13.651  1.00  0.00     0.048 C 
HETATM    4  C4  UNL     1      -5.327   4.401  13.016  1.00  0.00    -0.043 C 
HETATM    5  C5  UNL     1      -4.319   5.234  13.289  1.00  0.00    -0.040 C 
HETATM    6  C6  UNL     1      -4.741   6.332  14.103  1.00  0.00    -0.050 C 
HETATM    7  C7  UNL     1      -3.981   7.420  14.262  1.00  0.00    -0.009 C 
HETATM    8  C8  UNL     1      -2.685   7.631  13.500  1.00  0.00    -0.018 C 
HETATM    9  C9  UNL     1      -2.950   8.859  12.592  1.00  0.00     0.020 C 
HETATM   10  C10 UNL     1      -1.522   7.897  14.463  1.00  0.00     0.046 C 
HETATM   11  C11 UNL     1      -0.264   7.661  13.634  1.00  0.00     0.128 C 
HETATM   12  C12 UNL     1      -0.587   6.416  12.756  1.00  0.00    -0.010 C 
HETATM   13  C13 UNL     1      -0.038   5.185  13.514  1.00  0.00     0.018 C 
HETATM   14  C20 UNL     1      -2.181   6.430  12.615  1.00  0.00     0.017 C 
HETATM   15  C21 UNL     1      -2.891   5.071  12.887  1.00  0.00     0.026 C 
HETATM   16  C22 UNL     1      -2.836   4.121  11.670  1.00  0.00     0.014 C 
HETATM   17  C23 UNL     1      -3.705   2.868  11.887  1.00  0.00     0.040 C 
HETATM   18  C24 UNL     1      -5.152   3.196  12.227  1.00  0.00    -0.040 C 
HETATM   19  C25 UNL     1      -6.198   2.448  11.845  1.00  0.00     0.092 C 
HETATM   20 CL1  UNL     1      -6.103   0.996  10.938  1.00  0.00    -0.096 Cl
ENDROOT
BRANCH  12  21
HETATM   21  C14 UNL     1       0.033   6.467  11.325  1.00  0.00     0.046 C 
BRANCH  21  22
HETATM   22  C15 UNL     1       1.334   7.280  11.140  1.00  0.00     0.150 C 
BRANCH  22  23
HETATM   23  O2  UNL     1       1.296   8.038   9.938  1.00  0.00    -0.393 OA
HETATM   24  H21 UNL     1       0.844   7.479   9.268  1.00  0.00     0.210 HD
ENDBRANCH  22  23
BRANCH  22  25
HETATM   25  C16 UNL     1       2.574   6.350  11.169  1.00  0.00     0.182 C 
BRANCH  25  26
HETATM   26  O3  UNL     1       3.318   6.605  12.383  1.00  0.00    -0.390 OA
HETATM   27  H23 UNL     1       3.712   5.745  12.625  1.00  0.00     0.210 HD
ENDBRANCH  25  26
BRANCH  25  28
HETATM   28  C17 UNL     1       3.547   6.490   9.962  1.00  0.00     0.103 C 
HETATM   29  C18 UNL     1       4.183   7.882   9.860  1.00  0.00     0.051 C 
BRANCH  28  30
HETATM   30  O4  UNL     1       4.644   5.567  10.196  1.00  0.00    -0.385 OA
HETATM   31  H27 UNL     1       5.074   5.874  11.015  1.00  0.00     0.210 HD
ENDBRANCH  28  30
BRANCH  28  32
HETATM   32  C19 UNL     1       2.908   6.111   8.609  1.00  0.00     0.204 C 
BRANCH  32  33
HETATM   33  O5  UNL     1       3.333   4.821   8.165  1.00  0.00    -0.398 OA
HETATM   34  H30 UNL     1       3.032   4.733   7.244  1.00  0.00     0.209 HD
ENDBRANCH  32  33
ENDBRANCH  28  32
ENDBRANCH  25  28
ENDBRANCH  22  25
ENDBRANCH  21  22
ENDBRANCH  12  21
BRANCH  11  35
HETATM   35  O1  UNL     1       0.046   8.812  12.850  1.00  0.00    -0.395 OA
HETATM   36  H14 UNL     1       0.113   9.566  13.462  1.00  0.00     0.210 HD
ENDBRANCH  11  35
TORSDOF 10
ENDMDL
