MODEL 1
REMARK minimizedAffinity -8.01758957
REMARK  18 active torsions:
REMARK  status: ('A' for Active; 'I' for Inactive)
REMARK    1  A    between atoms: C4_4  and  C5_5 
REMARK    2  A    between atoms: C5_5  and  C6_6 
REMARK    3  A    between atoms: C6_6  and  C7_7 
REMARK    4  A    between atoms: C9_9  and  C10_10 
REMARK    5  A    between atoms: C10_10  and  O1_11 
REMARK    6  A    between atoms: C10_10  and  C11_12 
REMARK    7  A    between atoms: C11_12  and  C12_13 
REMARK    8  A    between atoms: C14_15  and  C15_16 
REMARK    9  A    between atoms: C15_16  and  C16_17 
REMARK   10  A    between atoms: C16_17  and  C17_18 
REMARK   11  A    between atoms: C17_18  and  C18_19 
REMARK   12  A    between atoms: C18_19  and  O2_20 
REMARK   13  A    between atoms: C19_21  and  C20_22 
REMARK   14  A    between atoms: C20_22  and  C21_23 
REMARK   15  A    between atoms: C21_23  and  C22_24 
REMARK   16  A    between atoms: C22_24  and  O3_25 
REMARK   17  A    between atoms: C24_27  and  C26_29 
REMARK   18  A    between atoms: C29_33  and  O5_35 
ROOT
HETATM    1  C17 UNL     1      -1.148   6.640  13.203  1.00  0.00     0.019 C 
HETATM    2  C19 UNL     1      -0.491   6.330  11.765  1.00  0.00     0.029 C 
HETATM    3  C23 UNL     1       0.888   6.989  11.572  1.00  0.00    -0.066 C 
HETATM    4  C24 UNL     1       1.327   7.639  10.459  1.00  0.00    -0.021 C 
HETATM    5  C25 UNL     1       2.690   8.273  10.326  1.00  0.00     0.052 C 
HETATM    6  C27 UNL     1       1.698   6.987  12.846  1.00  0.00     0.038 C 
HETATM    7  C28 UNL     1       1.020   7.843  13.921  1.00  0.00     0.042 C 
HETATM    8  C29 UNL     1      -0.523   7.975  13.791  1.00  0.00     0.065 C 
HETATM    9  C30 UNL     1      -0.879   9.254  13.012  1.00  0.00     0.047 C 
ENDROOT
BRANCH   1  10
HETATM   10  C16 UNL     1      -2.727   6.703  13.119  1.00  0.00     0.019 C 
BRANCH  10  11
HETATM   11  C15 UNL     1      -3.414   8.066  12.922  1.00  0.00     0.028 C 
BRANCH  11  12
HETATM   12  C14 UNL     1      -4.826   8.036  13.444  1.00  0.00    -0.024 C 
HETATM   13  C12 UNL     1      -5.308   8.583  14.579  1.00  0.00    -0.085 C 
HETATM   14  C13 UNL     1      -4.478   9.307  15.605  1.00  0.00     0.043 C 
BRANCH  13  15
HETATM   15  C11 UNL     1      -6.794   8.479  14.905  1.00  0.00     0.069 C 
BRANCH  15  16
HETATM   16  C10 UNL     1      -7.115   7.568  16.110  1.00  0.00     0.145 C 
BRANCH  16  17
HETATM   17  C9  UNL     1      -7.011   6.115  15.730  1.00  0.00     0.007 C 
HETATM   18  C7  UNL     1      -7.560   5.491  14.667  1.00  0.00    -0.085 C 
HETATM   19  C8  UNL     1      -8.464   6.181  13.675  1.00  0.00     0.043 C 
BRANCH  18  20
HETATM   20  C6  UNL     1      -7.354   4.013  14.349  1.00  0.00     0.037 C 
BRANCH  20  21
HETATM   21  C5  UNL     1      -8.071   3.391  13.138  1.00  0.00     0.031 C 
BRANCH  21  22
HETATM   22  C4  UNL     1      -7.303   2.246  12.527  1.00  0.00    -0.024 C 
HETATM   23  C2  UNL     1      -6.195   2.302  11.761  1.00  0.00    -0.091 C 
HETATM   24  C1  UNL     1      -5.461   3.555  11.373  1.00  0.00     0.042 C 
HETATM   25  C3  UNL     1      -5.573   1.036  11.227  1.00  0.00     0.042 C 
ENDBRANCH  21  22
ENDBRANCH  20  21
ENDBRANCH  18  20
ENDBRANCH  16  17
BRANCH  16  26
HETATM   26  O1  UNL     1      -8.452   7.759  16.579  1.00  0.00    -0.391 OA
HETATM   27  H17 UNL     1      -8.926   8.307  15.930  1.00  0.00     0.210 HD
ENDBRANCH  16  26
ENDBRANCH  15  16
ENDBRANCH  13  15
ENDBRANCH  11  12
ENDBRANCH  10  11
ENDBRANCH   1  10
BRANCH   1  28
HETATM   28  C18 UNL     1      -0.865   5.475  14.235  1.00  0.00     0.177 C 
BRANCH  28  29
HETATM   29  O2  UNL     1      -0.918   5.913  15.590  1.00  0.00    -0.400 OA
HETATM   30  H30 UNL     1      -0.307   6.679  15.656  1.00  0.00     0.209 HD
ENDBRANCH  28  29
ENDBRANCH   1  28
BRANCH   2  31
HETATM   31  C20 UNL     1      -0.489   4.809  11.440  1.00  0.00     0.012 C 
BRANCH  31  32
HETATM   32  C21 UNL     1      -1.798   4.202  10.928  1.00  0.00     0.027 C 
BRANCH  32  33
HETATM   33  C22 UNL     1      -1.922   2.702  11.155  1.00  0.00     0.164 C 
BRANCH  33  34
HETATM   34  O3  UNL     1      -1.593   2.042   9.940  1.00  0.00    -0.401 OA
HETATM   35  H38 UNL     1      -1.679   1.085  10.096  1.00  0.00     0.209 HD
ENDBRANCH  33  34
ENDBRANCH  32  33
ENDBRANCH  31  32
ENDBRANCH   2  31
BRANCH   8  36
HETATM   36  O5  UNL     1      -0.994   8.198  15.138  1.00  0.00    -0.389 OA
HETATM   37  H50 UNL     1      -1.872   8.619  15.094  1.00  0.00     0.210 HD
ENDBRANCH   8  36
BRANCH   4  38
HETATM   38  C26 UNL     1       0.481   7.819   9.232  1.00  0.00     0.265 C 
HETATM   39  O4  UNL     1      -0.174   8.834   9.020  1.00  0.00    -0.302 OA
ENDBRANCH   4  38
TORSDOF 18
ENDMDL
