MODEL 1
REMARK minimizedAffinity -8.75079346
REMARK CNNscore 0.337852865
REMARK CNNaffinity 6.91390371
REMARK  6 active torsions:
REMARK  status: ('A' for Active; 'I' for Inactive)
REMARK    1  A    between atoms: C2_2  and  C3_3 
REMARK    2  A    between atoms: C7_8  and  C8_9 
REMARK    3  A    between atoms: C21_24  and  C22_25 
REMARK    4  A    between atoms: C22_25  and  O1_26 
REMARK    5  A    between atoms: C23_27  and  C26_30 
REMARK    6  A    between atoms: C27_31  and  O2_32 
ROOT
HETATM    1  C8  UNL     1       4.128   9.476  12.770  1.00  0.00    -0.003 C 
HETATM    2  C9  UNL     1       4.240   8.665  11.700  1.00  0.00     0.102 C 
HETATM    3  N2  UNL     1       3.213   7.850  11.271  1.00  0.00    -0.349 N 
HETATM    4  C10 UNL     1       2.690   7.850   9.946  1.00  0.00     0.041 A 
HETATM    5  C11 UNL     1       3.327   8.274   8.791  1.00  0.00     0.030 A 
HETATM    6  C12 UNL     1       2.628   8.230   7.580  1.00  0.00     0.002 A 
HETATM    7  C13 UNL     1       1.307   7.764   7.535  1.00  0.00     0.001 A 
HETATM    8  C14 UNL     1       0.666   7.330   8.697  1.00  0.00     0.010 A 
HETATM    9  C15 UNL     1       1.366   7.380   9.893  1.00  0.00    -0.018 A 
HETATM   10  C16 UNL     1       0.936   6.941  11.262  1.00  0.00     0.043 C 
HETATM   11  C17 UNL     1       1.014   5.416  11.397  1.00  0.00     0.049 C 
HETATM   12  C18 UNL     1       0.285   5.159  12.705  1.00  0.00     0.274 C 
HETATM   13  N3  UNL     1      -0.725   6.215  12.797  1.00  0.00     0.098 N 
HETATM   14  C19 UNL     1      -0.894   6.759  14.139  1.00  0.00     0.307 C 
HETATM   15  C20 UNL     1       0.014   7.938  14.488  1.00  0.00    -0.049 C 
HETATM   16  C21 UNL     1       0.420   8.063  15.772  1.00  0.00     0.004 C 
HETATM   17  C23 UNL     1       0.225   8.965  13.372  1.00  0.00     0.027 C 
HETATM   18  C24 UNL     1      -0.757   8.647  12.225  1.00  0.00     0.046 C 
HETATM   19  C25 UNL     1      -0.502   7.218  11.734  1.00  0.00     0.239 C 
HETATM   20  C26 UNL     1       1.616   9.003  12.692  1.00  0.00     0.052 C 
HETATM   21  C27 UNL     1       2.795   9.561  13.511  1.00  0.00     0.160 C 
HETATM   22  C28 UNL     1       2.024   7.628  12.133  1.00  0.00     0.112 C 
ENDROOT
BRANCH   1  23
HETATM   23  C7  UNL     1       5.277  10.250  13.290  1.00  0.00    -0.016 A 
HETATM   24  C3  UNL     1       6.145   9.795  14.302  1.00  0.00    -0.032 A 
HETATM   25  C4  UNL     1       7.160  10.657  14.731  1.00  0.00     0.099 A 
HETATM   26  N1  UNL     1       7.365  11.865  14.158  1.00  0.00    -0.354 N 
HETATM   27  C5  UNL     1       6.578  12.284  13.129  1.00  0.00     0.062 A 
HETATM   28  C32 UNL     1       8.403  12.781  14.750  1.00  0.00     0.133 C 
HETATM   29  C6  UNL     1       5.520  11.496  12.698  1.00  0.00     0.044 A 
HETATM   30  C29 UNL     1       6.945  13.544  12.509  1.00  0.00     0.067 A 
HETATM   31  C30 UNL     1       8.128  14.206  12.758  1.00  0.00    -0.015 A 
HETATM   32  N4  UNL     1       6.260  14.262  11.563  1.00  0.00    -0.353 N 
HETATM   33  C31 UNL     1       9.121  13.633  13.699  1.00  0.00     0.062 C 
HETATM   34  C33 UNL     1       8.153  15.388  11.976  1.00  0.00    -0.001 A 
HETATM   35  C34 UNL     1       9.069  16.445  11.811  1.00  0.00     0.014 A 
HETATM   36  C38 UNL     1       6.969  15.401  11.236  1.00  0.00     0.043 A 
HETATM   37  C35 UNL     1       8.764  17.479  10.918  1.00  0.00     0.001 A 
HETATM   38  C36 UNL     1       7.575  17.467  10.193  1.00  0.00     0.002 A 
HETATM   39  C37 UNL     1       6.653  16.425  10.337  1.00  0.00     0.030 A 
HETATM   40  H39 UNL     1       5.371  14.019  11.144  1.00  0.00     0.166 HD
BRANCH  24  41
HETATM   41  C2  UNL     1       5.980   8.422  14.930  1.00  0.00     0.036 C 
HETATM   42  C1  UNL     1       6.723   7.271  14.258  1.00  0.00     0.010 C 
ENDBRANCH  24  41
ENDBRANCH   1  23
BRANCH  21  43
HETATM   43  O2  UNL     1       2.544  10.934  13.825  1.00  0.00    -0.390 OA
HETATM   44  H29 UNL     1       2.359  11.391  12.987  1.00  0.00     0.210 HD
ENDBRANCH  21  43
BRANCH  16  45
HETATM   45  C22 UNL     1       1.114   9.201  16.443  1.00  0.00     0.191 C 
BRANCH  45  46
HETATM   46  O1  UNL     1       2.313   8.709  17.033  1.00  0.00    -0.397 OA
HETATM   47  H22 UNL     1       2.038   8.243  17.842  1.00  0.00     0.209 HD
ENDBRANCH  45  46
ENDBRANCH  16  45
TORSDOF 6
ENDMDL
