MODEL 1
REMARK minimizedAffinity -7.50628853
REMARK CNNscore 0.622444093
REMARK CNNaffinity 6.50577784
REMARK  7 active torsions:
REMARK  status: ('A' for Active; 'I' for Inactive)
REMARK    1  A    between atoms: C2_2  and  C30_33 
REMARK    2  A    between atoms: C3_3  and  C4_4 
REMARK    3  A    between atoms: C4_4  and  C5_5 
REMARK    4  A    between atoms: C5_5  and  C6_6 
REMARK    5  A    between atoms: C6_6  and  C8_8 
REMARK    6  A    between atoms: C15_15  and  O1_16 
REMARK    7  A    between atoms: C30_33  and  O5_35 
ROOT
HETATM    1  C8  UNL     1     -17.684   3.222  14.205  1.00  0.00    -0.002 C 
HETATM    2  C9  UNL     1     -17.683   3.053  15.746  1.00  0.00     0.007 C 
HETATM    3  C10 UNL     1     -17.007   1.711  16.074  1.00  0.00     0.015 C 
HETATM    4  C11 UNL     1     -16.305   1.282  14.774  1.00  0.00    -0.005 C 
HETATM    5  C12 UNL     1     -14.933   2.021  14.731  1.00  0.00     0.021 C 
HETATM    6  C13 UNL     1     -15.971  -0.187  14.532  1.00  0.00     0.002 C 
HETATM    7  C14 UNL     1     -15.905  -0.703  13.274  1.00  0.00    -0.032 C 
HETATM    8  C15 UNL     1     -16.182   0.211  12.062  1.00  0.00     0.149 C 
HETATM    9  C16 UNL     1     -16.715   1.641  12.330  1.00  0.00     0.047 C 
HETATM   10  C17 UNL     1     -17.370   1.769  13.716  1.00  0.00    -0.026 C 
HETATM   11  C18 UNL     1     -18.687   0.930  13.750  1.00  0.00     0.016 C 
HETATM   12  C19 UNL     1     -15.488  -2.183  12.987  1.00  0.00    -0.012 C 
HETATM   13  C20 UNL     1     -16.768  -3.009  12.712  1.00  0.00     0.021 C 
HETATM   14  C21 UNL     1     -14.541  -2.250  11.754  1.00  0.00     0.021 C 
HETATM   15  C22 UNL     1     -13.662  -3.490  11.629  1.00  0.00     0.080 C 
HETATM   16  C23 UNL     1     -14.028  -4.606  12.570  1.00  0.00     0.135 C 
HETATM   17  O2  UNL     1     -14.071  -5.769  12.163  1.00  0.00    -0.297 OA
HETATM   18  C24 UNL     1     -14.216  -4.253  14.051  1.00  0.00     0.018 C 
HETATM   19  C25 UNL     1     -12.836  -4.426  14.723  1.00  0.00     0.023 C 
HETATM   20  C26 UNL     1     -15.175  -5.283  14.690  1.00  0.00     0.023 C 
HETATM   21  C27 UNL     1     -14.683  -2.762  14.202  1.00  0.00     0.020 C 
HETATM   22  C28 UNL     1     -15.420  -2.506  15.516  1.00  0.00     0.090 C 
HETATM   23  C29 UNL     1     -15.648  -1.036  15.722  1.00  0.00     0.157 C 
HETATM   24  O3  UNL     1     -15.596  -0.562  16.855  1.00  0.00    -0.293 OA
ENDROOT
BRANCH   1  25
HETATM   25  C6  UNL     1     -18.958   3.957  13.678  1.00  0.00    -0.014 C 
HETATM   26  C7  UNL     1     -19.221   3.649  12.196  1.00  0.00     0.010 C 
BRANCH  25  27
HETATM   27  C5  UNL     1     -18.870   5.507  13.814  1.00  0.00     0.008 C 
BRANCH  27  28
HETATM   28  C4  UNL     1     -18.083   6.281  12.744  1.00  0.00     0.028 C 
BRANCH  28  29
HETATM   29  C3  UNL     1     -16.589   6.293  12.926  1.00  0.00    -0.013 C 
HETATM   30  C2  UNL     1     -15.692   7.193  12.473  1.00  0.00     0.008 C 
HETATM   31  C1  UNL     1     -14.229   7.070  12.781  1.00  0.00     0.055 C 
BRANCH  30  32
HETATM   32  C30 UNL     1     -16.102   8.337  11.625  1.00  0.00     0.171 C 
HETATM   33  O4  UNL     1     -17.110   8.432  10.950  1.00  0.00    -0.646 OA
BRANCH  32  34
HETATM   34  O5  UNL     1     -15.189   9.323  11.660  1.00  0.00    -0.773 OA
HETATM   35  H44 UNL     1     -15.572  10.007  11.072  1.00  0.00     0.167 HD
ENDBRANCH  32  34
ENDBRANCH  30  32
ENDBRANCH  28  29
ENDBRANCH  27  28
ENDBRANCH  25  27
ENDBRANCH   1  25
BRANCH   8  36
HETATM   36  O1  UNL     1     -17.094  -0.428  11.175  1.00  0.00    -0.391 OA
HETATM   37  H22 UNL     1     -17.974  -0.411  11.585  1.00  0.00     0.210 HD
ENDBRANCH   8  36
TORSDOF 7
ENDMDL
