MODEL 1
REMARK minimizedAffinity -8.57239532
REMARK CNNscore 0.385474294
REMARK CNNaffinity 6.928967
REMARK  13 active torsions:
REMARK  status: ('A' for Active; 'I' for Inactive)
REMARK    1  A    between atoms: C4_4  and  C5_5 
REMARK    2  A    between atoms: C5_5  and  C6_6 
REMARK    3  A    between atoms: C6_6  and  C7_7 
REMARK    4  A    between atoms: C7_7  and  C9_9 
REMARK    5  A    between atoms: C18_18  and  C20_20 
REMARK    6  A    between atoms: C20_20  and  O2_22 
REMARK    7  A    between atoms: C21_23  and  O3_24 
REMARK    8  A    between atoms: O3_24  and  C22_25 
REMARK    9  A    between atoms: C23_27  and  C24_28 
REMARK   10  A    between atoms: C24_28  and  O5_29 
REMARK   11  A    between atoms: C25_30  and  O6_31 
REMARK   12  A    between atoms: C26_32  and  O7_33 
REMARK   13  A    between atoms: C28_35  and  O8_36 
ROOT
HETATM    1  C9  UNL     1      -5.690   6.058  14.569  1.00  0.00    -0.002 C 
HETATM    2  C10 UNL     1      -5.533   5.125  13.338  1.00  0.00     0.006 C 
HETATM    3  C11 UNL     1      -4.135   5.362  12.742  1.00  0.00     0.011 C 
HETATM    4  C12 UNL     1      -3.398   6.231  13.777  1.00  0.00    -0.032 C 
HETATM    5  C13 UNL     1      -2.792   5.242  14.822  1.00  0.00     0.016 C 
HETATM    6  C14 UNL     1      -2.289   7.142  13.176  1.00  0.00     0.004 C 
HETATM    7  C15 UNL     1      -1.030   6.385  12.751  1.00  0.00     0.007 C 
HETATM    8  C16 UNL     1      -0.042   7.307  12.049  1.00  0.00     0.007 C 
HETATM    9  C17 UNL     1       0.478   8.502  12.884  1.00  0.00     0.018 C 
HETATM   10  C18 UNL     1       1.966   8.394  13.389  1.00  0.00     0.072 C 
HETATM   11  C19 UNL     1       2.915   8.053  12.205  1.00  0.00     0.030 C 
HETATM   12  C21 UNL     1       2.406   9.762  14.037  1.00  0.00     0.146 C 
HETATM   13  C27 UNL     1       1.251  10.580  14.630  1.00  0.00     0.066 C 
HETATM   14  C28 UNL     1       0.106   9.722  15.124  1.00  0.00     0.130 C 
HETATM   15  C29 UNL     1      -0.534   8.986  13.957  1.00  0.00    -0.001 A 
HETATM   16  C30 UNL     1      -1.775   9.659  13.406  1.00  0.00     0.024 A 
HETATM   17  C31 UNL     1      -1.938   8.327  14.100  1.00  0.00    -0.025 A 
HETATM   18  C32 UNL     1      -2.600   8.347  15.476  1.00  0.00     0.011 C 
HETATM   19  C33 UNL     1      -4.065   7.879  15.557  1.00  0.00     0.011 C 
HETATM   20  C34 UNL     1      -4.574   7.125  14.323  1.00  0.00    -0.032 C 
HETATM   21  C35 UNL     1      -5.099   8.173  13.296  1.00  0.00     0.016 C 
ENDROOT
BRANCH  12  22
HETATM   22  O3  UNL     1       3.072  10.577  13.044  1.00  0.00    -0.352 OA
BRANCH  22  23
HETATM   23  C22 UNL     1       4.353  11.059  13.450  1.00  0.00     0.292 C 
HETATM   24  O4  UNL     1       4.264  11.860  14.639  1.00  0.00    -0.348 OA
HETATM   25  C23 UNL     1       4.577  13.229  14.298  1.00  0.00     0.179 C 
HETATM   26  C25 UNL     1       5.526  13.104  13.116  1.00  0.00     0.182 C 
HETATM   27  C26 UNL     1       4.906  11.962  12.332  1.00  0.00     0.204 C 
BRANCH  25  28
HETATM   28  C24 UNL     1       3.290  14.016  14.000  1.00  0.00     0.198 C 
BRANCH  28  29
HETATM   29  O5  UNL     1       2.788  13.660  12.710  1.00  0.00    -0.398 OA
HETATM   30  H39 UNL     1       1.987  14.193  12.566  1.00  0.00     0.209 HD
ENDBRANCH  28  29
ENDBRANCH  25  28
BRANCH  26  31
HETATM   31  O6  UNL     1       5.665  14.282  12.332  1.00  0.00    -0.390 OA
HETATM   32  H41 UNL     1       6.126  14.003  11.511  1.00  0.00     0.210 HD
ENDBRANCH  26  31
BRANCH  27  33
HETATM   33  O7  UNL     1       5.880  11.367  11.466  1.00  0.00    -0.388 OA
HETATM   34  H43 UNL     1       6.328  10.647  11.939  1.00  0.00     0.210 HD
ENDBRANCH  27  33
ENDBRANCH  22  23
ENDBRANCH  12  22
BRANCH  10  35
HETATM   35  C20 UNL     1       2.185   7.254  14.385  1.00  0.00     0.151 C 
HETATM   36  O1  UNL     1       2.735   7.295  15.474  1.00  0.00    -0.649 OA
BRANCH  35  37
HETATM   37  O2  UNL     1       1.587   6.097  14.027  1.00  0.00    -0.776 OA
HETATM   38  H33 UNL     1       1.837   5.497  14.760  1.00  0.00     0.167 HD
ENDBRANCH  35  37
ENDBRANCH  10  35
BRANCH  14  39
HETATM   39  O8  UNL     1       0.592   8.797  16.084  1.00  0.00    -0.395 OA
HETATM   40  H47 UNL     1      -0.087   8.724  16.781  1.00  0.00     0.210 HD
ENDBRANCH  14  39
BRANCH   1  41
HETATM   41  C7  UNL     1      -7.166   6.496  14.810  1.00  0.00    -0.014 C 
HETATM   42  C8  UNL     1      -7.510   6.537  16.306  1.00  0.00     0.010 C 
BRANCH  41  43
HETATM   43  C6  UNL     1      -8.169   5.530  14.117  1.00  0.00     0.008 C 
BRANCH  43  44
HETATM   44  C5  UNL     1      -9.213   6.246  13.256  1.00  0.00     0.028 C 
BRANCH  44  45
HETATM   45  C4  UNL     1      -9.846   7.386  14.008  1.00  0.00    -0.025 C 
HETATM   46  C2  UNL     1     -11.120   7.477  14.439  1.00  0.00    -0.091 C 
HETATM   47  C1  UNL     1     -12.158   6.402  14.289  1.00  0.00     0.042 C 
HETATM   48  C3  UNL     1     -11.605   8.716  15.145  1.00  0.00     0.042 C 
ENDBRANCH  44  45
ENDBRANCH  43  44
ENDBRANCH  41  43
ENDBRANCH   1  41
TORSDOF 13
ENDMDL
