MODEL 1
REMARK minimizedAffinity -8.5363884
REMARK CNNscore 0.691009164
REMARK CNNaffinity 7.82420588
REMARK  12 active torsions:
REMARK  status: ('A' for Active; 'I' for Inactive)
REMARK    1  A    between atoms: C2_2  and  C3_3 
REMARK    2  A    between atoms: C4_4  and  C18_19 
REMARK    3  A    between atoms: C19_20  and  O1_21 
REMARK    4  A    between atoms: N2_22  and  C20_23 
REMARK    5  A    between atoms: C20_23  and  C21_24 
REMARK    6  A    between atoms: C21_24  and  O3_26 
REMARK    7  A    between atoms: O3_26  and  C22_27 
REMARK    8  A    between atoms: C25_30  and  C26_31 
REMARK    9  A    between atoms: C32_38  and  C33_39 
REMARK   10  A    between atoms: C39_47  and  O7_48 
REMARK   11  A    between atoms: C43_52  and  O8_53 
REMARK   12  A    between atoms: C45_55  and  O9_56 
ROOT
HETATM    1  C22 UNL     1      -2.334  13.438  15.538  1.00  0.00     0.135 C 
HETATM    2  C23 UNL     1      -1.311  12.852  14.569  1.00  0.00     0.034 C 
HETATM    3  C24 UNL     1      -1.766  11.501  14.046  1.00  0.00     0.022 C 
HETATM    4  C25 UNL     1      -1.796  10.424  15.171  1.00  0.00     0.048 C 
HETATM    5  C27 UNL     1      -2.704   9.214  14.745  1.00  0.00     0.011 C 
HETATM    6  C28 UNL     1      -2.460   8.673  13.320  1.00  0.00     0.007 C 
HETATM    7  C29 UNL     1      -2.314   7.159  13.230  1.00  0.00     0.013 C 
HETATM    8  C30 UNL     1      -3.388   6.327  13.989  1.00  0.00    -0.005 C 
HETATM    9  C31 UNL     1      -2.847   4.876  13.994  1.00  0.00     0.019 C 
HETATM   10  C32 UNL     1      -4.779   6.459  13.255  1.00  0.00     0.028 C 
HETATM   11  C37 UNL     1      -5.576   7.462  14.101  1.00  0.00     0.013 C 
HETATM   12  C38 UNL     1      -5.117   7.232  15.527  1.00  0.00     0.040 C 
HETATM   13  C39 UNL     1      -3.618   6.890  15.449  1.00  0.00     0.070 C 
HETATM   14  C40 UNL     1      -2.668   8.080  15.799  1.00  0.00     0.026 C 
HETATM   15  C41 UNL     1      -2.832   8.619  17.241  1.00  0.00     0.011 C 
HETATM   16  C42 UNL     1      -3.281  10.075  17.296  1.00  0.00     0.039 C 
HETATM   17  C43 UNL     1      -2.338  11.039  16.528  1.00  0.00     0.074 C 
HETATM   18  C44 UNL     1      -3.117  12.359  16.302  1.00  0.00     0.071 C 
ENDROOT
BRANCH   1  19
HETATM   19  O3  UNL     1      -1.605  14.306  16.434  1.00  0.00    -0.315 OA
BRANCH  19  20
HETATM   20  C21 UNL     1      -2.322  14.884  17.433  1.00  0.00     0.285 C 
HETATM   21  O2  UNL     1      -1.885  15.703  18.229  1.00  0.00    -0.263 OA
BRANCH  20  22
HETATM   22  C20 UNL     1      -3.759  14.385  17.423  1.00  0.00     0.352 C 
BRANCH  22  23
HETATM   23  N2  UNL     1      -4.898  15.462  17.203  1.00  0.00    -0.021 N 
HETATM   24  C6  UNL     1      -4.894  16.420  18.450  1.00  0.00     0.214 C 
HETATM   25  C5  UNL     1      -5.623  17.714  18.035  1.00  0.00     0.041 C 
HETATM   26  C7  UNL     1      -5.638  15.792  19.669  1.00  0.00     0.109 C 
HETATM   27  C4  UNL     1      -6.569  17.407  16.867  1.00  0.00     0.004 C 
HETATM   28  C3  UNL     1      -5.660  17.277  15.622  1.00  0.00     0.047 C 
HETATM   29  C45 UNL     1      -4.549  16.231  15.928  1.00  0.00     0.329 C 
HETATM   30  N1  UNL     1      -4.850  14.822  20.477  1.00  0.00    -0.279 NA
HETATM   31  C15 UNL     1      -6.941  15.026  19.269  1.00  0.00     0.035 C 
HETATM   32  C8  UNL     1      -3.783  15.340  21.334  1.00  0.00     0.117 C 
HETATM   33  C9  UNL     1      -5.919  14.193  21.212  1.00  0.00     0.018 A 
HETATM   34  C10 UNL     1      -5.830  13.492  22.403  1.00  0.00     0.024 A 
HETATM   35  C14 UNL     1      -7.171  14.341  20.571  1.00  0.00    -0.024 A 
HETATM   36  C11 UNL     1      -7.005  12.984  22.971  1.00  0.00     0.002 A 
HETATM   37  C12 UNL     1      -8.247  13.168  22.345  1.00  0.00     0.001 A 
HETATM   38  C13 UNL     1      -8.338  13.841  21.126  1.00  0.00     0.010 A 
HETATM   39  C16 UNL     1      -6.678  13.981  18.182  1.00  0.00     0.053 C 
HETATM   40  C19 UNL     1      -7.936  15.958  18.559  1.00  0.00     0.139 C 
HETATM   41  C17 UNL     1      -6.323  14.880  17.025  1.00  0.00     0.203 C 
HETATM   42  C18 UNL     1      -7.323  16.081  17.128  1.00  0.00     0.051 C 
BRANCH  28  43
HETATM   43  C2  UNL     1      -6.404  16.944  14.314  1.00  0.00     0.005 C 
HETATM   44  C1  UNL     1      -7.613  17.837  14.062  1.00  0.00     0.005 C 
ENDBRANCH  28  43
BRANCH  29  45
HETATM   45  O9  UNL     1      -3.303  16.881  16.060  1.00  0.00    -0.369 OA
HETATM   46  H59 UNL     1      -3.073  17.261  15.191  1.00  0.00     0.212 HD
ENDBRANCH  29  45
BRANCH  40  47
HETATM   47  O1  UNL     1      -9.203  15.321  18.415  1.00  0.00    -0.394 OA
HETATM   48  H24 UNL     1      -9.884  16.005  18.266  1.00  0.00     0.210 HD
ENDBRANCH  40  47
ENDBRANCH  22  23
ENDBRANCH  20  22
ENDBRANCH  19  20
ENDBRANCH   1  19
BRANCH  17  49
HETATM   49  O8  UNL     1      -1.252  11.399  17.406  1.00  0.00    -0.389 OA
HETATM   50  H55 UNL     1      -1.193  10.734  18.120  1.00  0.00     0.210 HD
ENDBRANCH  17  49
BRANCH   4  51
HETATM   51  C26 UNL     1      -0.359   9.897  15.348  1.00  0.00     0.244 C 
HETATM   52  O4  UNL     1       0.653  10.545  15.111  1.00  0.00    -0.306 OA
ENDBRANCH   4  51
BRANCH  13  53
HETATM   53  O7  UNL     1      -3.340   5.867  16.414  1.00  0.00    -0.389 OA
HETATM   54  H49 UNL     1      -3.933   5.960  17.178  1.00  0.00     0.210 HD
ENDBRANCH  13  53
BRANCH  10  55
HETATM   55  C33 UNL     1      -5.538   5.182  12.993  1.00  0.00    -0.045 A 
HETATM   56  C34 UNL     1      -6.671   4.735  13.538  1.00  0.00     0.087 A 
HETATM   57  C35 UNL     1      -6.976   3.447  12.920  1.00  0.00     0.283 A 
HETATM   58  O5  UNL     1      -7.938   2.758  13.207  1.00  0.00    -0.260 OA
HETATM   59  O6  UNL     1      -6.032   3.166  11.986  1.00  0.00    -0.314 OA
HETATM   60  C36 UNL     1      -5.077   4.228  11.952  1.00  0.00     0.213 A 
ENDBRANCH  10  55
TORSDOF 12
ENDMDL
