MODEL 1
REMARK minimizedAffinity -7.28449726
REMARK CNNscore 0.563402414
REMARK CNNaffinity 6.69201994
REMARK  7 active torsions:
REMARK  status: ('A' for Active; 'I' for Inactive)
REMARK    1  A    between atoms: C4_4  and  C5_5 
REMARK    2  A    between atoms: C5_5  and  O1_6 
REMARK    3  A    between atoms: C5_5  and  C6_7 
REMARK    4  A    between atoms: C6_7  and  C7_8 
REMARK    5  A    between atoms: C7_8  and  C8_9 
REMARK    6  A    between atoms: C7_8  and  C9_11 
REMARK    7  A    between atoms: C8_9  and  O2_10 
ROOT
HETATM    1  C9  UNL     1       1.282   7.032  12.867  1.00  0.00     0.001 C 
HETATM    2  C10 UNL     1       0.179   7.172  11.779  1.00  0.00     0.007 C 
HETATM    3  C11 UNL     1      -0.780   8.274  12.258  1.00  0.00     0.015 C 
HETATM    4  C12 UNL     1      -0.494   8.416  13.767  1.00  0.00    -0.013 C 
HETATM    5  C13 UNL     1      -1.281   7.269  14.471  1.00  0.00     0.021 C 
HETATM    6  C14 UNL     1      -0.892   9.705  14.460  1.00  0.00    -0.070 C 
HETATM    7  C15 UNL     1      -1.775  10.590  13.971  1.00  0.00    -0.022 C 
HETATM    8  C16 UNL     1      -2.052  11.878  14.678  1.00  0.00     0.034 C 
HETATM    9  C17 UNL     1      -2.098  11.773  16.227  1.00  0.00     0.013 C 
HETATM   10  C18 UNL     1      -1.935  13.166  16.924  1.00  0.00     0.018 C 
HETATM   11  C19 UNL     1      -3.072  14.117  16.479  1.00  0.00     0.023 C 
HETATM   12  C20 UNL     1      -0.609  13.887  16.622  1.00  0.00     0.023 C 
HETATM   13  C21 UNL     1      -2.062  12.960  18.439  1.00  0.00     0.135 C 
HETATM   14  O3  UNL     1      -2.766  13.683  19.150  1.00  0.00    -0.297 OA
HETATM   15  C22 UNL     1      -1.289  11.838  19.086  1.00  0.00     0.080 C 
HETATM   16  C23 UNL     1      -0.462  11.015  18.114  1.00  0.00     0.017 C 
HETATM   17  C24 UNL     1      -1.217  10.592  16.829  1.00  0.00    -0.031 C 
HETATM   18  C25 UNL     1      -2.213   9.460  17.234  1.00  0.00     0.016 C 
HETATM   19  C26 UNL     1      -0.182  10.052  15.764  1.00  0.00     0.024 C 
HETATM   20  C27 UNL     1       0.774   8.945  16.292  1.00  0.00     0.010 C 
HETATM   21  C28 UNL     1       1.542   8.099  15.249  1.00  0.00     0.011 C 
HETATM   22  C29 UNL     1       1.072   8.276  13.791  1.00  0.00    -0.029 C 
HETATM   23  C30 UNL     1       1.807   9.515  13.204  1.00  0.00     0.016 C 
ENDROOT
BRANCH   1  24
HETATM   24  C7  UNL     1       2.668   6.622  12.289  1.00  0.00     0.017 C 
BRANCH  24  25
HETATM   25  C6  UNL     1       2.702   6.213  10.791  1.00  0.00     0.043 C 
BRANCH  25  26
HETATM   26  C5  UNL     1       3.335   7.271   9.866  1.00  0.00     0.141 C 
BRANCH  26  27
HETATM   27  C4  UNL     1       2.916   7.047   8.439  1.00  0.00     0.006 C 
HETATM   28  C2  UNL     1       1.833   7.528   7.795  1.00  0.00    -0.089 C 
HETATM   29  C1  UNL     1       0.784   8.425   8.393  1.00  0.00     0.042 C 
HETATM   30  C3  UNL     1       1.589   7.177   6.349  1.00  0.00     0.042 C 
ENDBRANCH  26  27
BRANCH  26  31
HETATM   31  O1  UNL     1       4.754   7.133   9.909  1.00  0.00    -0.392 OA
HETATM   32  H9  UNL     1       5.105   7.634   9.152  1.00  0.00     0.210 HD
ENDBRANCH  26  31
ENDBRANCH  25  26
ENDBRANCH  24  25
BRANCH  24  33
HETATM   33  C8  UNL     1       3.734   7.687  12.590  1.00  0.00     0.169 C 
BRANCH  33  34
HETATM   34  O2  UNL     1       4.712   7.189  13.497  1.00  0.00    -0.400 OA
HETATM   35  H15 UNL     1       4.229   6.879  14.289  1.00  0.00     0.209 HD
ENDBRANCH  33  34
ENDBRANCH  24  33
ENDBRANCH   1  24
TORSDOF 7
ENDMDL
