MODEL 1
REMARK minimizedAffinity -7.50284195
REMARK CNNscore 0.444591343
REMARK CNNaffinity 6.54353762
REMARK  7 active torsions:
REMARK  status: ('A' for Active; 'I' for Inactive)
REMARK    1  A    between atoms: C4_4  and  C5_5 
REMARK    2  A    between atoms: C5_5  and  C6_6 
REMARK    3  A    between atoms: C6_6  and  C7_7 
REMARK    4  A    between atoms: C7_7  and  C9_9 
REMARK    5  A    between atoms: C18_18  and  O1_19 
REMARK    6  A    between atoms: O1_19  and  C19_20 
REMARK    7  A    between atoms: C19_20  and  C20_22 
ROOT
HETATM    1  C9  UNL     1      -2.470   6.926  13.400  1.00  0.00    -0.002 C 
HETATM    2  C10 UNL     1      -3.856   7.352  12.844  1.00  0.00     0.006 C 
HETATM    3  C11 UNL     1      -4.307   8.592  13.624  1.00  0.00     0.010 C 
HETATM    4  C12 UNL     1      -3.081   8.988  14.437  1.00  0.00     0.023 C 
HETATM    5  C13 UNL     1      -3.202   9.939  15.603  1.00  0.00    -0.070 C 
HETATM    6  C14 UNL     1      -4.306  10.658  15.862  1.00  0.00     0.004 C 
HETATM    7  C15 UNL     1      -4.312  11.725  16.827  1.00  0.00     0.004 C 
HETATM    8  C16 UNL     1      -3.311  11.919  17.702  1.00  0.00    -0.069 C 
HETATM    9  C17 UNL     1      -3.380  13.036  18.718  1.00  0.00     0.067 C 
HETATM   10  C18 UNL     1      -2.067  13.814  18.832  1.00  0.00     0.136 C 
HETATM   11  C26 UNL     1      -0.903  12.855  19.091  1.00  0.00     0.034 C 
HETATM   12  C27 UNL     1      -0.797  11.814  17.979  1.00  0.00     0.017 C 
HETATM   13  C28 UNL     1      -2.094  10.984  17.747  1.00  0.00    -0.013 C 
HETATM   14  C29 UNL     1      -2.323  10.040  18.953  1.00  0.00     0.021 C 
HETATM   15  C30 UNL     1      -1.908  10.174  16.382  1.00  0.00     0.027 C 
HETATM   16  C31 UNL     1      -1.071   8.877  16.561  1.00  0.00     0.011 C 
HETATM   17  C32 UNL     1      -1.016   7.970  15.323  1.00  0.00     0.011 C 
HETATM   18  C33 UNL     1      -2.427   7.631  14.797  1.00  0.00    -0.033 C 
HETATM   19  C34 UNL     1      -3.240   6.840  15.851  1.00  0.00     0.016 C 
ENDROOT
BRANCH  10  20
HETATM   20  O1  UNL     1      -2.194  14.726  19.941  1.00  0.00    -0.312 OA
BRANCH  20  21
HETATM   21  C19 UNL     1      -3.253  15.573  19.893  1.00  0.00     0.293 C 
HETATM   22  O2  UNL     1      -3.519  16.338  18.980  1.00  0.00    -0.259 OA
BRANCH  21  23
HETATM   23  C20 UNL     1      -4.079  15.449  21.125  1.00  0.00     0.039 A 
HETATM   24  C21 UNL     1      -5.411  15.029  20.987  1.00  0.00     0.017 A 
HETATM   25  C22 UNL     1      -6.227  14.896  22.112  1.00  0.00     0.001 A 
HETATM   26  C23 UNL     1      -5.721  15.182  23.379  1.00  0.00     0.000 A 
HETATM   27  C24 UNL     1      -4.398  15.602  23.525  1.00  0.00     0.001 A 
HETATM   28  C25 UNL     1      -3.577  15.735  22.402  1.00  0.00     0.017 A 
ENDBRANCH  21  23
ENDBRANCH  20  21
ENDBRANCH  10  20
BRANCH   1  29
HETATM   29  C7  UNL     1      -2.233   5.388  13.306  1.00  0.00    -0.014 C 
HETATM   30  C8  UNL     1      -1.133   5.036  12.293  1.00  0.00     0.010 C 
BRANCH  29  31
HETATM   31  C6  UNL     1      -3.515   4.610  12.886  1.00  0.00     0.008 C 
BRANCH  31  32
HETATM   32  C5  UNL     1      -3.527   4.124  11.431  1.00  0.00     0.028 C 
BRANCH  32  33
HETATM   33  C4  UNL     1      -4.261   2.815  11.309  1.00  0.00    -0.025 C 
HETATM   34  C2  UNL     1      -5.563   2.567  11.552  1.00  0.00    -0.091 C 
HETATM   35  C1  UNL     1      -6.128   1.184  11.352  1.00  0.00     0.042 C 
HETATM   36  C3  UNL     1      -6.569   3.576  12.035  1.00  0.00     0.042 C 
ENDBRANCH  32  33
ENDBRANCH  31  32
ENDBRANCH  29  31
ENDBRANCH   1  29
TORSDOF 7
ENDMDL
