MODEL 1
REMARK minimizedAffinity -9.77111149
REMARK CNNscore 0.697822571
REMARK CNNaffinity 6.92189074
REMARK  8 active torsions:
REMARK  status: ('A' for Active; 'I' for Inactive)
REMARK    1  A    between atoms: C2_2  and  C30_35 
REMARK    2  A    between atoms: C3_3  and  C4_4 
REMARK    3  A    between atoms: C4_4  and  O1_5 
REMARK    4  A    between atoms: C4_4  and  C5_6 
REMARK    5  A    between atoms: C5_6  and  C6_7 
REMARK    6  A    between atoms: C6_7  and  C8_9 
REMARK    7  A    between atoms: C29_33  and  O5_34 
REMARK    8  A    between atoms: C30_35  and  O7_37 
ROOT
HETATM    1  C8  UNL     1      -5.615   7.987  14.973  1.00  0.00     0.006 C 
HETATM    2  C9  UNL     1      -5.095   9.333  15.538  1.00  0.00     0.085 C 
HETATM    3  C10 UNL     1      -3.727   9.477  14.898  1.00  0.00     0.140 C 
HETATM    4  O2  UNL     1      -3.007  10.456  15.062  1.00  0.00    -0.297 OA
HETATM    5  C11 UNL     1      -3.407   8.296  13.972  1.00  0.00     0.051 C 
HETATM    6  C12 UNL     1      -3.873   8.803  12.577  1.00  0.00     0.029 C 
HETATM    7  C13 UNL     1      -2.008   7.729  13.779  1.00  0.00    -0.024 C 
HETATM    8  C14 UNL     1      -1.855   6.491  13.236  1.00  0.00     0.003 C 
HETATM    9  C15 UNL     1      -3.097   5.629  13.048  1.00  0.00     0.157 C 
HETATM   10  O3  UNL     1      -3.050   4.580  12.405  1.00  0.00    -0.293 OA
HETATM   11  C16 UNL     1      -4.435   6.047  13.657  1.00  0.00     0.094 C 
HETATM   12  C17 UNL     1      -4.303   7.199  14.653  1.00  0.00    -0.015 C 
HETATM   13  C18 UNL     1      -3.667   6.639  15.961  1.00  0.00     0.018 C 
HETATM   14  C19 UNL     1      -0.489   5.897  12.829  1.00  0.00    -0.008 C 
HETATM   15  C20 UNL     1      -0.136   4.818  13.890  1.00  0.00     0.021 C 
HETATM   16  C21 UNL     1      -0.536   5.203  11.431  1.00  0.00     0.022 C 
HETATM   17  C22 UNL     1       0.801   5.188  10.708  1.00  0.00     0.080 C 
HETATM   18  C23 UNL     1       1.277   6.596  10.429  1.00  0.00     0.135 C 
HETATM   19  O4  UNL     1       1.968   6.827   9.435  1.00  0.00    -0.297 OA
HETATM   20  C24 UNL     1       0.894   7.692  11.442  1.00  0.00     0.018 C 
HETATM   21  C25 UNL     1      -0.300   8.464  10.859  1.00  0.00     0.023 C 
HETATM   22  C26 UNL     1       2.084   8.674  11.526  1.00  0.00     0.023 C 
HETATM   23  C27 UNL     1       0.656   6.987  12.824  1.00  0.00     0.016 C 
HETATM   24  C28 UNL     1       0.518   7.917  14.037  1.00  0.00     0.043 C 
HETATM   25  C29 UNL     1      -0.840   8.598  14.165  1.00  0.00     0.149 C 
ENDROOT
BRANCH   1  26
HETATM   26  C6  UNL     1      -6.785   7.380  15.812  1.00  0.00    -0.011 C 
HETATM   27  C7  UNL     1      -6.780   5.858  15.984  1.00  0.00     0.010 C 
BRANCH  26  28
HETATM   28  C5  UNL     1      -8.159   7.896  15.310  1.00  0.00     0.040 C 
BRANCH  28  29
HETATM   29  C4  UNL     1      -9.046   6.927  14.504  1.00  0.00     0.142 C 
BRANCH  29  30
HETATM   30  C3  UNL     1      -8.350   5.691  14.012  1.00  0.00     0.018 C 
HETATM   31  C2  UNL     1      -8.319   5.236  12.740  1.00  0.00     0.010 C 
HETATM   32  C1  UNL     1      -8.973   5.888  11.559  1.00  0.00     0.055 C 
BRANCH  31  33
HETATM   33  C30 UNL     1      -7.547   3.989  12.505  1.00  0.00     0.171 C 
HETATM   34  O6  UNL     1      -6.451   3.902  11.981  1.00  0.00    -0.646 OA
BRANCH  33  35
HETATM   35  O7  UNL     1      -8.202   2.896  12.929  1.00  0.00    -0.773 OA
HETATM   36  H42 UNL     1      -7.587   2.162  12.723  1.00  0.00     0.167 HD
ENDBRANCH  33  35
ENDBRANCH  31  33
ENDBRANCH  29  30
BRANCH  29  37
HETATM   37  O1  UNL     1     -10.190   6.557  15.265  1.00  0.00    -0.392 OA
HETATM   38  H6  UNL     1      -9.933   5.859  15.892  1.00  0.00     0.210 HD
ENDBRANCH  29  37
ENDBRANCH  28  29
ENDBRANCH  26  28
ENDBRANCH   1  26
BRANCH  25  39
HETATM   39  O5  UNL     1      -0.965   8.931  15.545  1.00  0.00    -0.391 OA
HETATM   40  H41 UNL     1      -1.387   9.819  15.575  1.00  0.00     0.210 HD
ENDBRANCH  25  39
TORSDOF 8
ENDMDL
