MODEL 1
REMARK minimizedAffinity -9.59753227
REMARK CNNscore 0.78936708
REMARK CNNaffinity 7.30661249
REMARK  12 active torsions:
REMARK  status: ('A' for Active; 'I' for Inactive)
REMARK    1  A    between atoms: N1_6  and  O1_8 
REMARK    2  A    between atoms: O1_8  and  C6_9 
REMARK    3  A    between atoms: C6_9  and  C7_10 
REMARK       I    between atoms: C7_10  and  N2_12 
REMARK    4  A    between atoms: N2_12  and  C8_13 
REMARK    5  A    between atoms: C8_13  and  C9_14 
REMARK    6  A    between atoms: C12_17  and  C13_18 
REMARK    7  A    between atoms: C13_18  and  O4_20 
REMARK    8  A    between atoms: C22_29  and  O5_30 
REMARK    9  A    between atoms: C29_37  and  O6_38 
REMARK   10  A    between atoms: C29_37  and  C30_39 
REMARK   11  A    between atoms: C30_39  and  C31_41 
REMARK   12  A    between atoms: C31_41  and  O8_42 
ROOT
HETATM    1  C1  UNL     1      -0.157  50.361 -19.628  1.00  0.00     0.020 C 
HETATM    2  C2  UNL     1      -1.701  50.360 -19.587  1.00  0.00    -0.014 C 
HETATM    3  C3  UNL     1      -2.180  51.521 -18.668  1.00  0.00     0.020 C 
HETATM    4  C4  UNL     1      -1.996  51.252 -17.181  1.00  0.00     0.060 C 
HETATM    5  C5  UNL     1      -2.697  49.966 -16.800  1.00  0.00     0.032 C 
HETATM    6  N1  UNL     1      -3.318  49.757 -15.675  1.00  0.00    -0.271 N 
ATOM      7  H1  UNL     1      -3.751  48.870 -15.420  1.00  0.00     0.194 HD
HETATM    8  C16 UNL     1      -2.626  48.841 -17.767  1.00  0.00     0.030 C 
HETATM    9  C17 UNL     1      -2.139  49.007 -19.008  1.00  0.00    -0.069 C 
HETATM   10  C18 UNL     1      -1.992  47.813 -19.921  1.00  0.00     0.035 C 
HETATM   11  C19 UNL     1      -2.702  48.040 -21.247  1.00  0.00     0.010 C 
HETATM   12  C20 UNL     1      -2.212  49.319 -21.945  1.00  0.00    -0.002 C 
HETATM   13  C21 UNL     1      -2.376  50.556 -21.006  1.00  0.00     0.031 C 
HETATM   14  C22 UNL     1      -2.029  51.890 -21.732  1.00  0.00     0.124 C 
HETATM   15  C23 UNL     1      -2.730  52.037 -23.099  1.00  0.00     0.045 C 
HETATM   16  C24 UNL     1      -2.543  50.815 -24.030  1.00  0.00     0.001 C 
HETATM   17  C25 UNL     1      -1.071  50.701 -24.508  1.00  0.00     0.019 C 
HETATM   18  C26 UNL     1      -3.017  49.576 -23.231  1.00  0.00     0.002 C 
HETATM   19  C27 UNL     1      -3.084  48.474 -24.279  1.00  0.00     0.009 C 
HETATM   20  C28 UNL     1      -3.569  49.193 -25.551  1.00  0.00     0.047 C 
HETATM   21  C29 UNL     1      -3.498  50.724 -25.267  1.00  0.00     0.128 C 
ENDROOT
BRANCH   6  22
HETATM   22  O1  UNL     1      -3.322  50.894 -14.854  1.00  0.00    -0.271 OA
BRANCH  22  23
HETATM   23  C6  UNL     1      -2.583  50.622 -13.665  1.00  0.00     0.303 C 
BRANCH  23  24
HETATM   24  C7  UNL     1      -3.204  51.319 -12.459  1.00  0.00     0.244 C 
HETATM   25  O2  UNL     1      -3.930  50.727 -11.663  1.00  0.00    -0.271 OA
HETATM   26  N2  UNL     1      -2.849  52.645 -12.329  1.00  0.00    -0.355 N 
HETATM   27  H10 UNL     1      -2.361  53.053 -13.122  1.00  0.00     0.162 HD
BRANCH  26  28
HETATM   28  C8  UNL     1      -3.473  53.518 -11.365  1.00  0.00     0.161 C 
BRANCH  28  29
HETATM   29  C9  UNL     1      -2.502  53.887 -10.271  1.00  0.00    -0.040 A 
HETATM   30  C10 UNL     1      -1.752  55.071 -10.368  1.00  0.00     0.010 A 
HETATM   31  C11 UNL     1      -0.823  55.408  -9.379  1.00  0.00     0.019 A 
HETATM   32  C12 UNL     1      -0.631  54.562  -8.281  1.00  0.00     0.037 A 
HETATM   33  C14 UNL     1      -1.374  53.379  -8.180  1.00  0.00     0.019 A 
HETATM   34  C15 UNL     1      -2.300  53.041  -9.171  1.00  0.00     0.010 A 
BRANCH  32  35
HETATM   35  C13 UNL     1       0.346  54.873  -7.208  1.00  0.00     0.176 C 
HETATM   36  O3  UNL     1       0.233  54.577  -6.033  1.00  0.00    -0.646 OA
BRANCH  35  37
HETATM   37  O4  UNL     1       1.422  55.540  -7.660  1.00  0.00    -0.773 OA
HETATM   38  H15 UNL     1       1.967  55.674  -6.856  1.00  0.00     0.167 HD
ENDBRANCH  35  37
ENDBRANCH  32  35
ENDBRANCH  28  29
ENDBRANCH  26  28
ENDBRANCH  23  24
ENDBRANCH  22  23
ENDBRANCH   6  22
BRANCH  14  39
HETATM   39  O5  UNL     1      -0.627  52.031 -21.914  1.00  0.00    -0.395 OA
HETATM   40  H26 UNL     1      -0.457  52.938 -22.219  1.00  0.00     0.210 HD
ENDBRANCH  14  39
BRANCH  21  41
HETATM   41  O6  UNL     1      -4.829  51.127 -24.908  1.00  0.00    -0.381 OA
HETATM   42  H37 UNL     1      -4.821  52.104 -24.815  1.00  0.00     0.211 HD
ENDBRANCH  21  41
BRANCH  21  43
HETATM   43  C30 UNL     1      -3.047  51.514 -26.526  1.00  0.00     0.184 C 
HETATM   44  O7  UNL     1      -2.961  52.743 -26.562  1.00  0.00    -0.292 OA
BRANCH  43  45
HETATM   45  C31 UNL     1      -2.718  50.703 -27.775  1.00  0.00     0.245 C 
BRANCH  45  46
HETATM   46  O8  UNL     1      -3.513  51.064 -28.892  1.00  0.00    -0.393 OA
HETATM   47  H40 UNL     1      -4.387  50.647 -28.753  1.00  0.00     0.209 HD
ENDBRANCH  45  46
ENDBRANCH  43  45
ENDBRANCH  21  43
TORSDOF 12
ENDMDL
