MODEL 1
REMARK minimizedAffinity -7.08678007
REMARK CNNscore 0.737084627
REMARK CNNaffinity 7.22969389
REMARK  4 active torsions:
REMARK  status: ('A' for Active; 'I' for Inactive)
REMARK    1  A    between atoms: C4_4  and  C5_5 
REMARK    2  A    between atoms: C5_5  and  C6_6 
REMARK    3  A    between atoms: C6_6  and  C7_7 
REMARK    4  A    between atoms: C7_7  and  C9_9 
ROOT
HETATM    1  C9  UNL     1       4.647  55.181  -8.078  1.00  0.00    -0.002 C 
HETATM    2  C10 UNL     1       4.127  56.631  -8.316  1.00  0.00     0.007 C 
HETATM    3  C11 UNL     1       2.658  56.526  -8.722  1.00  0.00     0.015 C 
HETATM    4  C12 UNL     1       2.579  55.175  -9.452  1.00  0.00    -0.013 C 
HETATM    5  C13 UNL     1       3.193  55.378 -10.868  1.00  0.00     0.021 C 
HETATM    6  C14 UNL     1       1.200  54.572  -9.659  1.00  0.00    -0.070 C 
HETATM    7  C15 UNL     1       0.058  55.277  -9.623  1.00  0.00    -0.022 C 
HETATM    8  C16 UNL     1      -1.279  54.621  -9.760  1.00  0.00     0.034 C 
HETATM    9  C17 UNL     1      -1.336  53.401 -10.720  1.00  0.00     0.013 C 
HETATM   10  C18 UNL     1      -2.514  52.428 -10.359  1.00  0.00     0.018 C 
HETATM   11  C19 UNL     1      -2.408  51.789  -8.963  1.00  0.00     0.023 C 
HETATM   12  C20 UNL     1      -3.863  53.190 -10.417  1.00  0.00     0.023 C 
HETATM   13  C21 UNL     1      -2.569  51.313 -11.414  1.00  0.00     0.135 C 
HETATM   14  O1  UNL     1      -3.635  50.882 -11.876  1.00  0.00    -0.297 OA
HETATM   15  C22 UNL     1      -1.273  50.708 -11.899  1.00  0.00     0.080 C 
HETATM   16  C23 UNL     1      -0.058  51.171 -11.117  1.00  0.00     0.017 C 
HETATM   17  C24 UNL     1       0.068  52.711 -10.995  1.00  0.00    -0.031 C 
HETATM   18  C25 UNL     1       0.569  53.241 -12.374  1.00  0.00     0.016 C 
HETATM   19  C26 UNL     1       1.110  53.066  -9.860  1.00  0.00     0.024 C 
HETATM   20  C27 UNL     1       2.482  52.349  -9.999  1.00  0.00     0.010 C 
HETATM   21  C28 UNL     1       3.685  52.921  -9.211  1.00  0.00     0.011 C 
HETATM   22  C29 UNL     1       3.428  54.263  -8.502  1.00  0.00    -0.029 C 
HETATM   23  C30 UNL     1       2.702  53.931  -7.152  1.00  0.00     0.016 C 
ENDROOT
BRANCH   1  24
HETATM   24  C7  UNL     1       6.061  54.895  -8.680  1.00  0.00    -0.014 C 
HETATM   25  C8  UNL     1       6.265  53.396  -8.962  1.00  0.00     0.010 C 
BRANCH  24  26
HETATM   26  C6  UNL     1       7.248  55.429  -7.827  1.00  0.00     0.008 C 
BRANCH  26  27
HETATM   27  C5  UNL     1       6.938  55.974  -6.420  1.00  0.00     0.028 C 
BRANCH  27  28
HETATM   28  C4  UNL     1       8.140  56.514  -5.697  1.00  0.00    -0.025 C 
HETATM   29  C2  UNL     1       8.278  57.696  -5.061  1.00  0.00    -0.091 C 
HETATM   30  C1  UNL     1       7.214  58.751  -4.939  1.00  0.00     0.042 C 
HETATM   31  C3  UNL     1       9.580  58.050  -4.383  1.00  0.00     0.042 C 
ENDBRANCH  27  28
ENDBRANCH  26  27
ENDBRANCH  24  26
ENDBRANCH   1  24
TORSDOF 4
ENDMDL
