MODEL 1
REMARK minimizedAffinity -7.96229267
REMARK  14 active torsions:
REMARK  status: ('A' for Active; 'I' for Inactive)
REMARK    1  A    between atoms: O1_2  and  C2_3 
REMARK    2  A    between atoms: C2_3  and  C3_4 
REMARK    3  A    between atoms: C2_3  and  C24_30 
REMARK    4  A    between atoms: C3_4  and  C5_6 
REMARK    5  A    between atoms: C6_8  and  C8_10 
REMARK    6  A    between atoms: C8_10  and  C9_11 
REMARK    7  A    between atoms: C9_11  and  O3_13 
REMARK    8  A    between atoms: C9_11  and  C11_14 
REMARK    9  A    between atoms: C12_15  and  C13_16 
REMARK   10  A    between atoms: C14_17  and  C16_19 
REMARK   11  A    between atoms: C17_21  and  C18_22 
REMARK   12  A    between atoms: C18_22  and  C19_23 
REMARK   13  A    between atoms: C19_23  and  O6_25 
REMARK   14  A    between atoms: C24_30  and  O7_32 
ROOT
HETATM    1  C9  UNL     1      -0.728  52.131 -26.700  1.00  0.00     0.075 C 
HETATM    2  C10 UNL     1       0.063  53.102 -27.584  1.00  0.00     0.050 C 
ENDROOT
BRANCH   1   3
HETATM    3  C8  UNL     1      -1.404  52.824 -25.492  1.00  0.00     0.082 C 
BRANCH   3   4
HETATM    4  C6  UNL     1      -1.451  52.004 -24.215  1.00  0.00     0.087 A 
HETATM    5  C5  UNL     1      -0.202  51.941 -23.337  1.00  0.00     0.163 A 
HETATM    6  O2  UNL     1      -0.546  50.882 -24.238  1.00  0.00    -0.369 OA
HETATM    7  C7  UNL     1      -2.805  51.615 -23.693  1.00  0.00     0.049 C 
BRANCH   5   8
HETATM    8  C3  UNL     1      -0.240  51.569 -21.879  1.00  0.00     0.045 C 
HETATM    9  C4  UNL     1      -1.497  50.729 -21.612  1.00  0.00     0.015 C 
BRANCH   8  10
HETATM   10  C2  UNL     1      -0.213  52.822 -20.959  1.00  0.00     0.155 C 
BRANCH  10  11
HETATM   11  O1  UNL     1      -0.739  52.417 -19.679  1.00  0.00    -0.388 OA
HETATM   12  C1  UNL     1       0.045  51.416 -19.042  1.00  0.00     0.202 C 
ENDBRANCH  10  11
BRANCH  10  13
HETATM   13  C24 UNL     1       1.210  53.429 -20.780  1.00  0.00     0.143 C 
HETATM   14  C25 UNL     1       1.597  54.381 -21.905  1.00  0.00     0.042 C 
BRANCH  13  15
HETATM   15  O7  UNL     1       1.348  54.151 -19.553  1.00  0.00    -0.393 OA
HETATM   16  H42 UNL     1       1.282  53.495 -18.835  1.00  0.00     0.210 HD
ENDBRANCH  13  15
ENDBRANCH  10  13
ENDBRANCH   8  10
ENDBRANCH   5   8
ENDBRANCH   3   4
ENDBRANCH   1   3
BRANCH   1  17
HETATM   17  O3  UNL     1       0.207  51.160 -26.212  1.00  0.00    -0.386 OA
HETATM   18  H18 UNL     1       0.475  50.618 -26.975  1.00  0.00     0.211 HD
ENDBRANCH   1  17
BRANCH   1  19
HETATM   19  C11 UNL     1      -1.783  51.336 -27.449  1.00  0.00     0.010 C 
HETATM   20  C12 UNL     1      -2.372  50.191 -27.063  1.00  0.00    -0.001 C 
BRANCH  20  21
HETATM   21  C13 UNL     1      -3.402  49.546 -27.847  1.00  0.00     0.005 C 
HETATM   22  C14 UNL     1      -4.378  48.727 -27.402  1.00  0.00    -0.055 C 
HETATM   23  C15 UNL     1      -4.557  48.289 -25.971  1.00  0.00     0.046 C 
BRANCH  22  24
HETATM   24  C16 UNL     1      -5.441  48.189 -28.355  1.00  0.00     0.154 C 
HETATM   25  O4  UNL     1      -4.756  47.574 -29.459  1.00  0.00    -0.375 OA
HETATM   26  C17 UNL     1      -5.638  47.168 -30.513  1.00  0.00     0.132 C 
HETATM   27  C20 UNL     1      -6.596  46.097 -29.982  1.00  0.00     0.033 C 
HETATM   28  C21 UNL     1      -7.363  46.613 -28.770  1.00  0.00     0.009 C 
HETATM   29  C22 UNL     1      -6.404  47.169 -27.705  1.00  0.00     0.015 C 
HETATM   30  C23 UNL     1      -7.206  47.754 -26.543  1.00  0.00     0.012 C 
BRANCH  26  31
HETATM   31  C18 UNL     1      -4.768  46.643 -31.653  1.00  0.00     0.141 C 
BRANCH  31  32
HETATM   32  C19 UNL     1      -4.586  47.668 -32.732  1.00  0.00     0.141 C 
HETATM   33  O5  UNL     1      -4.675  47.498 -33.935  1.00  0.00    -0.650 OA
BRANCH  32  34
HETATM   34  O6  UNL     1      -4.325  48.892 -32.231  1.00  0.00    -0.776 OA
HETATM   35  H29 UNL     1      -4.243  49.465 -33.022  1.00  0.00     0.167 HD
ENDBRANCH  32  34
ENDBRANCH  31  32
ENDBRANCH  26  31
ENDBRANCH  22  24
ENDBRANCH  20  21
ENDBRANCH   1  19
TORSDOF 14
ENDMDL
