MODEL 1
REMARK minimizedAffinity -9.61377525
REMARK  9 active torsions:
REMARK  status: ('A' for Active; 'I' for Inactive)
REMARK    1  A    between atoms: C3_3  and  O1_4 
REMARK    2  A    between atoms: N1_14  and  O2_16 
REMARK    3  A    between atoms: O2_16  and  C13_17 
REMARK    4  A    between atoms: C13_17  and  C14_18 
REMARK       I    between atoms: C14_18  and  N2_20 
REMARK    5  A    between atoms: N2_20  and  C15_21 
REMARK    6  A    between atoms: C15_21  and  C16_22 
REMARK    7  A    between atoms: C15_21  and  C17_25 
REMARK    8  A    between atoms: C16_22  and  O5_24 
REMARK    9  A    between atoms: C17_25  and  C19_27 
ROOT
HETATM    1  C1  UNL     1      -7.832   4.960  15.898  1.00  0.00     0.015 C 
HETATM    2  C2  UNL     1      -7.194   5.621  15.124  1.00  0.00    -0.078 C 
HETATM    3  C3  UNL     1      -6.426   6.431  14.167  1.00  0.00     0.128 C 
HETATM    4  C4  UNL     1      -6.531   7.949  14.460  1.00  0.00     0.052 C 
HETATM    5  C5  UNL     1      -5.173   8.564  14.061  1.00  0.00     0.010 C 
HETATM    6  C6  UNL     1      -4.413   7.420  13.396  1.00  0.00     0.002 C 
HETATM    7  C7  UNL     1      -2.887   7.517  13.283  1.00  0.00    -0.004 C 
HETATM    8  C8  UNL     1      -2.462   8.783  12.528  1.00  0.00     0.010 C 
HETATM    9  C9  UNL     1      -0.946   8.860  12.394  1.00  0.00     0.035 C 
HETATM   10  C10 UNL     1      -0.368   7.624  11.746  1.00  0.00    -0.069 C 
HETATM   11  C11 UNL     1       0.490   7.755  10.719  1.00  0.00     0.030 C 
HETATM   12  C12 UNL     1       1.194   6.591  10.126  1.00  0.00     0.032 C 
HETATM   13  N1  UNL     1       1.990   6.812   9.118  1.00  0.00    -0.271 N 
ATOM     14  H1  UNL     1       2.125   7.724   8.685  1.00  0.00     0.194 HD
HETATM   15  C21 UNL     1       0.992   5.241  10.780  1.00  0.00     0.060 C 
HETATM   16  C22 UNL     1      -0.411   5.126  11.357  1.00  0.00     0.020 C 
HETATM   17  C23 UNL     1      -0.789   6.273  12.338  1.00  0.00    -0.016 C 
HETATM   18  C24 UNL     1      -0.027   6.070  13.667  1.00  0.00     0.020 C 
HETATM   19  C25 UNL     1      -2.353   6.250  12.544  1.00  0.00     0.002 C 
HETATM   20  C26 UNL     1      -2.886   4.940  13.186  1.00  0.00     0.007 C 
HETATM   21  C27 UNL     1      -4.412   4.935  13.389  1.00  0.00     0.014 C 
HETATM   22  C28 UNL     1      -4.892   6.169  14.170  1.00  0.00     0.003 C 
HETATM   23  C29 UNL     1      -4.345   6.105  15.625  1.00  0.00     0.020 C 
ENDROOT
BRANCH   3  24
HETATM   24  O1  UNL     1      -6.960   6.200  12.862  1.00  0.00    -0.377 OA
HETATM   25  H2  UNL     1      -7.923   6.324  12.923  1.00  0.00     0.211 HD
ENDBRANCH   3  24
BRANCH  13  26
HETATM   26  O2  UNL     1       2.636   5.641   8.703  1.00  0.00    -0.271 OA
BRANCH  26  27
HETATM   27  C13 UNL     1       3.527   5.217   9.730  1.00  0.00     0.303 C 
BRANCH  27  28
HETATM   28  C14 UNL     1       4.321   6.402  10.269  1.00  0.00     0.244 C 
HETATM   29  O3  UNL     1       4.531   7.413   9.603  1.00  0.00    -0.271 OA
HETATM   30  N2  UNL     1       4.743   6.269  11.571  1.00  0.00    -0.344 N 
HETATM   31  H16 UNL     1       4.539   5.397  12.056  1.00  0.00     0.163 HD
BRANCH  30  32
HETATM   32  C15 UNL     1       5.541   7.280  12.262  1.00  0.00     0.186 C 
BRANCH  32  33
HETATM   33  C16 UNL     1       6.655   7.722  11.312  1.00  0.00     0.163 C 
HETATM   34  O4  UNL     1       7.096   8.858  11.198  1.00  0.00    -0.648 OA
BRANCH  33  35
HETATM   35  O5  UNL     1       7.156   6.721  10.563  1.00  0.00    -0.775 OA
HETATM   36  H18 UNL     1       7.838   7.153  10.007  1.00  0.00     0.167 HD
ENDBRANCH  33  35
ENDBRANCH  32  33
BRANCH  32  37
HETATM   37  C17 UNL     1       4.675   8.451  12.787  1.00  0.00     0.014 C 
HETATM   38  C18 UNL     1       4.727   9.636  11.813  1.00  0.00     0.012 C 
BRANCH  37  39
HETATM   39  C19 UNL     1       3.198   8.112  13.088  1.00  0.00     0.002 C 
HETATM   40  C20 UNL     1       2.515   9.052  14.070  1.00  0.00     0.005 C 
ENDBRANCH  37  39
ENDBRANCH  32  37
ENDBRANCH  30  32
ENDBRANCH  27  28
ENDBRANCH  26  27
ENDBRANCH  13  26
TORSDOF 9
ENDMDL
