MODEL 1
REMARK minimizedAffinity -7.4046731
REMARK CNNscore 0.514442086
REMARK CNNaffinity 7.66099691
REMARK  20 active torsions:
REMARK  status: ('A' for Active; 'I' for Inactive)
REMARK    1  A    between atoms: C2_2  and  C18_26 
REMARK    2  A    between atoms: C3_3  and  C4_4 
REMARK    3  A    between atoms: C4_4  and  O2_6 
REMARK    4  A    between atoms: O2_6  and  C5_7 
REMARK    5  A    between atoms: C5_7  and  C6_8 
REMARK    6  A    between atoms: C6_8  and  C7_9 
REMARK    7  A    between atoms: C7_9  and  C8_10 
REMARK    8  A    between atoms: C8_10  and  C9_11 
REMARK    9  A    between atoms: C9_11  and  C10_12 
REMARK   10  A    between atoms: C10_12  and  C11_13 
REMARK   11  A    between atoms: C11_13  and  C12_14 
REMARK       I    between atoms: C12_14  and  N1_16 
REMARK   12  A    between atoms: N1_16  and  C13_17 
REMARK   13  A    between atoms: C18_26  and  C19_27 
REMARK   14  A    between atoms: C21_29  and  O5_30 
REMARK   15  A    between atoms: C22_31  and  O6_32 
REMARK   16  A    between atoms: C22_31  and  C23_33 
REMARK   17  A    between atoms: C23_33  and  C24_34 
REMARK   18  A    between atoms: C25_35  and  C26_36 
REMARK   19  A    between atoms: C26_36  and  C28_38 
REMARK   20  A    between atoms: C28_38  and  O7_40 
ROOT
HETATM    1  C4  UNL     1      -4.752  48.711 -24.517  1.00  0.00     0.283 C 
HETATM    2  O1  UNL     1      -5.299  48.144 -25.444  1.00  0.00    -0.260 OA
ENDROOT
BRANCH   1   3
HETATM    3  C3  UNL     1      -5.001  48.479 -23.073  1.00  0.00     0.084 C 
HETATM    4  C2  UNL     1      -4.087  48.092 -22.159  1.00  0.00    -0.076 C 
HETATM    5  C1  UNL     1      -2.657  47.734 -22.463  1.00  0.00     0.043 C 
BRANCH   4   6
HETATM    6  C18 UNL     1      -4.476  48.003 -20.690  1.00  0.00     0.066 C 
BRANCH   6   7
HETATM    7  C19 UNL     1      -5.997  48.114 -20.469  1.00  0.00     0.128 C 
HETATM    8  C20 UNL     1      -6.304  48.750 -19.119  1.00  0.00     0.067 C 
HETATM    9  C21 UNL     1      -7.816  48.859 -18.883  1.00  0.00     0.157 C 
HETATM   10  C22 UNL     1      -8.599  47.681 -19.520  1.00  0.00     0.108 C 
HETATM   11  C30 UNL     1      -7.630  46.490 -19.676  1.00  0.00     0.209 C 
HETATM   12  O8  UNL     1      -6.566  46.798 -20.589  1.00  0.00    -0.382 OA
BRANCH   9  13
HETATM   13  O5  UNL     1      -7.993  48.922 -17.466  1.00  0.00    -0.392 OA
HETATM   14  H28 UNL     1      -8.365  49.802 -17.263  1.00  0.00     0.210 HD
ENDBRANCH   9  13
BRANCH  10  15
HETATM   15  O6  UNL     1      -9.026  48.063 -20.849  1.00  0.00    -0.385 OA
HETATM   16  H29 UNL     1      -8.443  47.605 -21.486  1.00  0.00     0.210 HD
ENDBRANCH  10  15
BRANCH  10  17
HETATM   17  C23 UNL     1      -9.843  47.228 -18.712  1.00  0.00     0.069 C 
BRANCH  17  18
HETATM   18  C24 UNL     1     -11.180  47.910 -18.908  1.00  0.00    -0.027 C 
HETATM   19  C25 UNL     1     -12.142  47.595 -19.790  1.00  0.00    -0.024 C 
BRANCH  19  20
HETATM   20  C26 UNL     1     -13.460  48.328 -19.892  1.00  0.00     0.032 C 
HETATM   21  C27 UNL     1     -14.316  47.713 -21.004  1.00  0.00     0.017 C 
BRANCH  20  22
HETATM   22  C28 UNL     1     -14.194  48.394 -18.528  1.00  0.00     0.121 C 
HETATM   23  C29 UNL     1     -15.060  47.181 -18.198  1.00  0.00     0.040 C 
BRANCH  22  24
HETATM   24  O7  UNL     1     -15.043  49.547 -18.492  1.00  0.00    -0.395 OA
HETATM   25  H42 UNL     1     -14.467  50.329 -18.544  1.00  0.00     0.210 HD
ENDBRANCH  22  24
ENDBRANCH  20  22
ENDBRANCH  19  20
ENDBRANCH  17  18
ENDBRANCH  10  17
ENDBRANCH   6   7
ENDBRANCH   4   6
ENDBRANCH   1   3
BRANCH   1  26
HETATM   26  O2  UNL     1      -3.765  49.643 -24.616  1.00  0.00    -0.318 OA
BRANCH  26  27
HETATM   27  C5  UNL     1      -4.218  51.003 -24.702  1.00  0.00     0.179 C 
BRANCH  27  28
HETATM   28  C6  UNL     1      -3.538  51.708 -25.877  1.00  0.00     0.027 C 
BRANCH  28  29
HETATM   29  C7  UNL     1      -2.794  50.719 -26.780  1.00  0.00     0.002 C 
BRANCH  29  30
HETATM   30  C8  UNL     1      -1.392  51.189 -27.182  1.00  0.00     0.000 C 
BRANCH  30  31
HETATM   31  C9  UNL     1      -0.223  50.549 -26.430  1.00  0.00     0.000 C 
BRANCH  31  32
HETATM   32  C10 UNL     1       0.947  51.477 -26.085  1.00  0.00     0.009 C 
BRANCH  32  33
HETATM   33  C11 UNL     1       0.558  52.842 -25.519  1.00  0.00     0.103 C 
BRANCH  33  34
HETATM   34  C12 UNL     1      -0.014  52.798 -24.110  1.00  0.00     0.222 C 
HETATM   35  O3  UNL     1      -1.218  52.774 -23.886  1.00  0.00    -0.273 OA
HETATM   36  N1  UNL     1       0.984  52.734 -23.161  1.00  0.00    -0.321 N 
HETATM   37  H19 UNL     1       1.918  52.512 -23.494  1.00  0.00     0.169 HD
BRANCH  36  38
HETATM   38  C13 UNL     1       0.866  52.729 -21.797  1.00  0.00     0.123 A 
HETATM   39  C14 UNL     1       0.348  51.914 -20.871  1.00  0.00     0.071 A 
HETATM   40  S1  UNL     1      -0.520  50.439 -20.916  1.00  0.00    -0.049 SA
HETATM   41  C16 UNL     1       0.504  52.473 -19.561  1.00  0.00     0.062 A 
HETATM   42  S2  UNL     1      -0.741  50.303 -18.851  1.00  0.00    -0.062 SA
HETATM   43  C15 UNL     1       0.038  51.822 -18.500  1.00  0.00     0.088 A 
HETATM   44  N2  UNL     1       1.140  53.660 -19.685  1.00  0.00    -0.320 N 
HETATM   45  C17 UNL     1       1.393  53.909 -21.016  1.00  0.00     0.274 A 
HETATM   46  H21 UNL     1       1.391  54.294 -18.940  1.00  0.00     0.169 HD
HETATM   47  O4  UNL     1       1.940  54.881 -21.506  1.00  0.00    -0.266 OA
ENDBRANCH  36  38
ENDBRANCH  33  34
ENDBRANCH  32  33
ENDBRANCH  31  32
ENDBRANCH  30  31
ENDBRANCH  29  30
ENDBRANCH  28  29
ENDBRANCH  27  28
ENDBRANCH  26  27
ENDBRANCH   1  26
TORSDOF 20
ENDMDL
