MODEL 1
REMARK minimizedAffinity -9.80829048
REMARK CNNscore 0.441369742
REMARK CNNaffinity 6.68891525
REMARK  7 active torsions:
REMARK  status: ('A' for Active; 'I' for Inactive)
REMARK    1  A    between atoms: C3_3  and  C4_4 
REMARK    2  A    between atoms: C4_4  and  O1_5 
REMARK    3  A    between atoms: C7_9  and  O3_10 
REMARK    4  A    between atoms: C25_30  and  C26_31 
REMARK    5  A    between atoms: C41_47  and  O7_49 
REMARK    6  A    between atoms: C43_50  and  O8_51 
REMARK    7  A    between atoms: C43_50  and  O9_52 
ROOT
HETATM    1  C1  UNL     1      -7.789  43.435 -25.627  1.00  0.00     0.013 C 
HETATM    2  C2  UNL     1      -8.352  43.214 -27.029  1.00  0.00     0.023 C 
HETATM    3  C3  UNL     1      -8.417  44.543 -27.842  1.00  0.00     0.050 C 
HETATM    4  C5  UNL     1      -9.903  45.046 -27.706  1.00  0.00     0.194 C 
HETATM    5  O2  UNL     1     -10.426  44.118 -26.739  1.00  0.00    -0.371 OA
HETATM    6  C6  UNL     1      -9.819  42.843 -27.021  1.00  0.00     0.167 C 
HETATM    7  C7  UNL     1     -10.406  41.752 -26.116  1.00  0.00     0.226 C 
HETATM    8  C8  UNL     1     -11.824  41.603 -26.529  1.00  0.00    -0.072 C 
HETATM    9  C9  UNL     1     -12.934  41.774 -26.962  1.00  0.00    -0.103 C 
HETATM   10  C10 UNL     1     -14.257  42.235 -27.443  1.00  0.00     0.099 C 
HETATM   11  C11 UNL     1     -14.799  43.332 -26.496  1.00  0.00     0.009 C 
HETATM   12  C12 UNL     1     -16.316  43.127 -26.217  1.00  0.00     0.016 C 
HETATM   13  C13 UNL     1     -16.944  44.138 -25.190  1.00  0.00     0.027 C 
HETATM   14  C14 UNL     1     -16.404  45.567 -25.323  1.00  0.00    -0.036 C 
HETATM   15  C15 UNL     1     -17.163  46.663 -25.185  1.00  0.00     0.057 C 
HETATM   16  C16 UNL     1     -18.581  46.603 -24.808  1.00  0.00     0.154 C 
HETATM   17  O4  UNL     1     -19.190  47.662 -24.675  1.00  0.00    -0.293 OA
HETATM   18  C17 UNL     1     -19.239  45.276 -24.485  1.00  0.00     0.071 C 
HETATM   19  C18 UNL     1     -19.501  45.201 -22.971  1.00  0.00     0.045 C 
HETATM   20  C19 UNL     1     -18.404  44.400 -22.285  1.00  0.00     0.122 C 
HETATM   21  C20 UNL     1     -18.492  42.935 -22.724  1.00  0.00     0.033 C 
HETATM   22  C21 UNL     1     -18.883  42.778 -24.206  1.00  0.00     0.013 C 
HETATM   23  C22 UNL     1     -18.530  44.015 -25.094  1.00  0.00    -0.026 C 
HETATM   24  C23 UNL     1     -19.166  43.795 -26.494  1.00  0.00     0.016 C 
HETATM   25  O5  UNL     1     -18.479  44.481 -20.864  1.00  0.00    -0.384 OA
HETATM   26  C24 UNL     1     -17.987  45.724 -20.331  1.00  0.00     0.190 C 
HETATM   27  C25 UNL     1     -16.467  45.703 -20.029  1.00  0.00     0.121 C 
HETATM   28  C32 UNL     1     -15.625  45.725 -21.254  1.00  0.00    -0.093 C 
HETATM   29  C33 UNL     1     -14.894  45.732 -22.212  1.00  0.00    -0.080 C 
HETATM   30  C34 UNL     1     -13.890  45.741 -23.279  1.00  0.00     0.263 C 
HETATM   31  O6  UNL     1     -14.268  45.014 -24.445  1.00  0.00    -0.363 OA
HETATM   32  C35 UNL     1     -14.906  45.667 -25.572  1.00  0.00     0.094 C 
HETATM   33  C36 UNL     1     -14.201  46.989 -25.900  1.00  0.00     0.044 C 
HETATM   34  C37 UNL     1     -12.800  46.504 -26.296  1.00  0.00     0.012 C 
HETATM   35  C38 UNL     1     -13.028  45.261 -27.198  1.00  0.00     0.037 C 
HETATM   36  C39 UNL     1     -14.552  44.846 -26.904  1.00  0.00     0.003 C 
HETATM   37  C40 UNL     1     -15.488  45.246 -28.086  1.00  0.00     0.019 C 
HETATM   38  C41 UNL     1     -12.460  45.504 -28.663  1.00  0.00     0.117 C 
HETATM   39  C42 UNL     1     -12.693  46.966 -29.150  1.00  0.00     0.052 C 
HETATM   40  C43 UNL     1     -10.885  45.103 -28.944  1.00  0.00     0.218 C 
ENDROOT
BRANCH  27  41
HETATM   41  C26 UNL     1     -16.124  46.876 -19.117  1.00  0.00    -0.040 A 
HETATM   42  C27 UNL     1     -14.928  46.904 -18.375  1.00  0.00     0.008 A 
HETATM   43  C28 UNL     1     -14.612  48.006 -17.581  1.00  0.00     0.001 A 
HETATM   44  C29 UNL     1     -15.479  49.097 -17.521  1.00  0.00     0.000 A 
HETATM   45  C30 UNL     1     -16.671  49.078 -18.241  1.00  0.00     0.001 A 
HETATM   46  C31 UNL     1     -16.997  47.975 -19.031  1.00  0.00     0.008 A 
ENDBRANCH  27  41
BRANCH  38  47
HETATM   47  O7  UNL     1     -13.217  44.671 -29.589  1.00  0.00    -0.384 OA
HETATM   48  H52 UNL     1     -12.924  44.944 -30.480  1.00  0.00     0.210 HD
ENDBRANCH  38  47
BRANCH  40  49
HETATM   49  O8  UNL     1     -10.413  46.000 -29.951  1.00  0.00    -0.361 OA
HETATM   50  H53 UNL     1      -9.433  45.971 -29.927  1.00  0.00     0.213 HD
ENDBRANCH  40  49
BRANCH  40  51
HETATM   51  O9  UNL     1     -10.894  43.828 -29.604  1.00  0.00    -0.361 OA
HETATM   52  H54 UNL     1     -11.827  43.534 -29.576  1.00  0.00     0.213 HD
ENDBRANCH  40  51
BRANCH   7  53
HETATM   53  O3  UNL     1      -9.715  40.524 -26.302  1.00  0.00    -0.381 OA
HETATM   54  H12 UNL     1     -10.294  39.832 -25.933  1.00  0.00     0.211 HD
ENDBRANCH   7  53
BRANCH   3  55
HETATM   55  C4  UNL     1      -7.857  44.348 -29.246  1.00  0.00     0.172 C 
BRANCH  55  56
HETATM   56  O1  UNL     1      -6.834  45.307 -29.487  1.00  0.00    -0.400 OA
HETATM   57  H8  UNL     1      -6.465  45.111 -30.370  1.00  0.00     0.209 HD
ENDBRANCH  55  56
ENDBRANCH   3  55
TORSDOF 7
ENDMDL
