MODEL 1
REMARK minimizedAffinity -7.72786856
REMARK CNNscore 0.41232875
REMARK CNNaffinity 6.51425123
REMARK  13 active torsions:
REMARK  status: ('A' for Active; 'I' for Inactive)
REMARK    1  A    between atoms: C2_2  and  O2_4 
REMARK    2  A    between atoms: O2_4  and  C3_5 
REMARK    3  A    between atoms: C3_5  and  C6_8 
REMARK    4  A    between atoms: C7_9  and  C8_10 
REMARK    5  A    between atoms: C8_10  and  C9_11 
REMARK    6  A    between atoms: C9_11  and  C11_13 
REMARK    7  A    between atoms: C20_22  and  O3_23 
REMARK    8  A    between atoms: O3_23  and  C21_24 
REMARK    9  A    between atoms: C23_27  and  O5_28 
REMARK   10  A    between atoms: C24_29  and  O6_30 
REMARK   11  A    between atoms: C25_31  and  O7_32 
REMARK   12  A    between atoms: C28_35  and  C29_36 
REMARK   13  A    between atoms: C29_36  and  O8_37 
ROOT
HETATM    1  C11 UNL     1     -13.365  45.255 -26.645  1.00  0.00    -0.002 C 
HETATM    2  C12 UNL     1     -13.000  43.879 -27.219  1.00  0.00     0.006 C 
HETATM    3  C13 UNL     1     -11.534  44.027 -27.578  1.00  0.00     0.006 C 
HETATM    4  C14 UNL     1     -11.384  45.468 -28.103  1.00  0.00    -0.001 C 
HETATM    5  C15 UNL     1     -10.060  46.154 -27.678  1.00  0.00    -0.001 C 
HETATM    6  C16 UNL     1      -8.828  45.308 -28.022  1.00  0.00     0.033 C 
HETATM    7  C17 UNL     1      -7.597  46.079 -27.681  1.00  0.00    -0.023 C 
HETATM    8  C18 UNL     1      -7.530  46.864 -26.592  1.00  0.00    -0.070 C 
HETATM    9  C19 UNL     1      -6.340  47.783 -26.403  1.00  0.00     0.066 C 
HETATM   10  C20 UNL     1      -6.020  48.122 -24.941  1.00  0.00     0.128 C 
HETATM   11  C26 UNL     1      -7.266  48.615 -24.185  1.00  0.00     0.033 C 
HETATM   12  C27 UNL     1      -8.604  48.288 -24.862  1.00  0.00     0.019 C 
HETATM   13  C28 UNL     1      -8.661  46.901 -25.552  1.00  0.00     0.008 C 
HETATM   14  C30 UNL     1     -10.093  46.569 -26.185  1.00  0.00     0.005 C 
HETATM   15  C31 UNL     1     -11.222  47.598 -25.952  1.00  0.00     0.007 C 
HETATM   16  C32 UNL     1     -12.307  47.611 -27.034  1.00  0.00     0.010 C 
HETATM   17  C33 UNL     1     -12.679  46.242 -27.645  1.00  0.00    -0.036 C 
HETATM   18  C34 UNL     1     -13.540  46.524 -28.894  1.00  0.00     0.016 C 
ENDROOT
BRANCH  10  19
HETATM   19  O3  UNL     1      -5.035  49.156 -24.804  1.00  0.00    -0.353 OA
BRANCH  19  20
HETATM   20  C21 UNL     1      -4.873  49.679 -23.486  1.00  0.00     0.291 C 
HETATM   21  O4  UNL     1      -3.805  49.061 -22.771  1.00  0.00    -0.356 OA
HETATM   22  C22 UNL     1      -2.527  49.315 -23.360  1.00  0.00     0.205 C 
HETATM   23  C23 UNL     1      -2.193  50.807 -23.344  1.00  0.00     0.173 C 
HETATM   24  C24 UNL     1      -3.283  51.605 -24.060  1.00  0.00     0.182 C 
HETATM   25  C25 UNL     1      -4.677  51.216 -23.553  1.00  0.00     0.204 C 
BRANCH  23  26
HETATM   26  O5  UNL     1      -0.933  51.041 -23.975  1.00  0.00    -0.391 OA
HETATM   27  H35 UNL     1      -1.137  51.094 -24.934  1.00  0.00     0.210 HD
ENDBRANCH  23  26
BRANCH  24  28
HETATM   28  O6  UNL     1      -3.161  51.382 -25.478  1.00  0.00    -0.390 OA
HETATM   29  H37 UNL     1      -4.030  51.641 -25.848  1.00  0.00     0.210 HD
ENDBRANCH  24  28
BRANCH  25  30
HETATM   30  O7  UNL     1      -5.651  51.867 -24.385  1.00  0.00    -0.388 OA
HETATM   31  H39 UNL     1      -6.441  51.296 -24.423  1.00  0.00     0.210 HD
ENDBRANCH  25  30
ENDBRANCH  19  20
ENDBRANCH  10  19
BRANCH  13  32
HETATM   32  C29 UNL     1      -8.369  45.782 -24.493  1.00  0.00     0.178 C 
BRANCH  32  33
HETATM   33  O8  UNL     1      -9.383  44.781 -24.513  1.00  0.00    -0.400 OA
HETATM   34  H46 UNL     1      -9.101  44.077 -23.903  1.00  0.00     0.209 HD
ENDBRANCH  32  33
ENDBRANCH  13  32
BRANCH   1  35
HETATM   35  C9  UNL     1     -14.872  45.358 -26.247  1.00  0.00    -0.011 C 
HETATM   36  C10 UNL     1     -15.887  45.187 -27.388  1.00  0.00     0.010 C 
BRANCH  35  37
HETATM   37  C8  UNL     1     -15.175  46.618 -25.407  1.00  0.00     0.031 C 
BRANCH  37  38
HETATM   38  C7  UNL     1     -16.463  46.519 -24.633  1.00  0.00    -0.027 C 
HETATM   39  C6  UNL     1     -16.873  45.406 -24.000  1.00  0.00     0.007 C 
BRANCH  39  40
HETATM   40  C3  UNL     1     -18.169  45.213 -23.235  1.00  0.00     0.081 C 
HETATM   41  C4  UNL     1     -18.656  46.400 -22.387  1.00  0.00     0.051 C 
HETATM   42  C5  UNL     1     -17.973  44.014 -22.290  1.00  0.00     0.051 C 
BRANCH  40  43
HETATM   43  O2  UNL     1     -19.205  44.785 -24.158  1.00  0.00    -0.307 OA
BRANCH  43  44
HETATM   44  C2  UNL     1     -19.559  45.580 -25.201  1.00  0.00     0.255 C 
HETATM   45  C1  UNL     1     -19.450  44.810 -26.482  1.00  0.00     0.126 C 
HETATM   46  O1  UNL     1     -19.941  46.740 -25.140  1.00  0.00    -0.266 OA
ENDBRANCH  43  44
ENDBRANCH  40  43
ENDBRANCH  39  40
ENDBRANCH  37  38
ENDBRANCH  35  37
ENDBRANCH   1  35
TORSDOF 13
ENDMDL
