MODEL 1
REMARK minimizedAffinity -7.56499767
REMARK CNNscore 0.598504663
REMARK CNNaffinity 6.3368144
REMARK  6 active torsions:
REMARK  status: ('A' for Active; 'I' for Inactive)
REMARK    1  A    between atoms: C15_17  and  C16_18 
REMARK    2  A    between atoms: C22_26  and  O5_27 
REMARK    3  A    between atoms: C23_28  and  C24_29 
REMARK    4  A    between atoms: C27_34  and  O8_35 
REMARK    5  A    between atoms: C28_36  and  O9_37 
REMARK    6  A    between atoms: C29_38  and  O10_39 
ROOT
HETATM    1  C1  UNL     1      -7.113 -11.514  23.512  1.00  0.00     0.042 C 
HETATM    2  C2  UNL     1      -7.806 -12.814  23.914  1.00  0.00     0.152 C 
HETATM    3  O1  UNL     1      -8.732 -12.484  24.967  1.00  0.00    -0.348 OA
HETATM    4  C3  UNL     1      -9.814 -13.409  25.030  1.00  0.00     0.325 C 
HETATM    5  O2  UNL     1     -10.541 -13.281  26.263  1.00  0.00    -0.347 OA
HETATM    6  C4  UNL     1     -11.215 -12.023  26.323  1.00  0.00     0.158 C 
HETATM    7  C5  UNL     1     -11.931 -11.906  27.666  1.00  0.00     0.069 C 
HETATM    8  C6  UNL     1     -12.722 -10.620  27.743  1.00  0.00    -0.065 C 
HETATM    9  C7  UNL     1     -12.528  -9.763  28.762  1.00  0.00    -0.022 C 
HETATM   10  C8  UNL     1     -13.284  -8.479  28.942  1.00  0.00     0.035 C 
HETATM   11  C9  UNL     1     -14.564  -8.424  28.086  1.00  0.00     0.030 C 
HETATM   12  C10 UNL     1     -14.237  -8.869  26.639  1.00  0.00     0.012 C 
HETATM   13  C11 UNL     1     -15.383  -8.573  25.652  1.00  0.00     0.007 C 
HETATM   14  C12 UNL     1     -16.697  -8.196  26.335  1.00  0.00     0.013 C 
HETATM   15  C13 UNL     1     -16.597  -6.985  27.295  1.00  0.00    -0.005 C 
HETATM   16  C14 UNL     1     -17.879  -6.986  28.162  1.00  0.00     0.019 C 
HETATM   17  C15 UNL     1     -16.443  -5.636  26.491  1.00  0.00     0.028 C 
HETATM   18  C20 UNL     1     -15.464  -4.813  27.328  1.00  0.00     0.013 C 
HETATM   19  C21 UNL     1     -14.436  -5.859  27.736  1.00  0.00     0.040 C 
HETATM   20  C22 UNL     1     -15.289  -7.061  28.174  1.00  0.00     0.070 C 
HETATM   21  C23 UNL     1     -13.708 -10.349  26.600  1.00  0.00     0.043 C 
HETATM   22  C25 UNL     1     -13.004 -10.610  25.240  1.00  0.00     0.056 C 
HETATM   23  C26 UNL     1     -12.239 -11.941  25.185  1.00  0.00     0.156 C 
HETATM   24  O7  UNL     1     -11.589 -12.036  23.912  1.00  0.00    -0.341 OA
HETATM   25  C27 UNL     1     -10.762 -13.215  23.796  1.00  0.00     0.242 C 
HETATM   26  C28 UNL     1      -9.908 -13.006  22.507  1.00  0.00     0.216 C 
HETATM   27  C29 UNL     1      -8.471 -13.493  22.688  1.00  0.00     0.181 C 
ENDROOT
BRANCH  17  28
HETATM   28  C16 UNL     1     -17.696  -4.920  26.083  1.00  0.00    -0.045 A 
HETATM   29  C17 UNL     1     -18.086  -3.717  26.501  1.00  0.00     0.087 A 
HETATM   30  C18 UNL     1     -19.334  -3.396  25.810  1.00  0.00     0.283 A 
HETATM   31  O3  UNL     1     -19.927  -2.341  25.914  1.00  0.00    -0.260 OA
HETATM   32  O4  UNL     1     -19.695  -4.453  25.038  1.00  0.00    -0.314 OA
HETATM   33  C19 UNL     1     -18.694  -5.472  25.137  1.00  0.00     0.213 A 
ENDBRANCH  17  28
BRANCH  20  34
HETATM   34  O5  UNL     1     -15.597  -6.814  29.554  1.00  0.00    -0.389 OA
HETATM   35  H29 UNL     1     -16.016  -7.613  29.924  1.00  0.00     0.210 HD
ENDBRANCH  20  34
BRANCH  21  36
HETATM   36  C24 UNL     1     -14.894 -11.325  26.738  1.00  0.00     0.245 C 
HETATM   37  O6  UNL     1     -15.387 -11.698  27.799  1.00  0.00    -0.306 OA
ENDBRANCH  21  36
BRANCH  25  38
HETATM   38  O8  UNL     1     -11.627 -14.345  23.605  1.00  0.00    -0.359 OA
HETATM   39  H34 UNL     1     -11.762 -14.744  24.480  1.00  0.00     0.213 HD
ENDBRANCH  25  38
BRANCH  26  40
HETATM   40  O9  UNL     1     -10.494 -13.675  21.369  1.00  0.00    -0.387 OA
HETATM   41  H36 UNL     1     -11.271 -14.157  21.737  1.00  0.00     0.210 HD
ENDBRANCH  26  40
BRANCH  27  42
HETATM   42  O10 UNL     1      -8.487 -14.910  22.908  1.00  0.00    -0.390 OA
HETATM   43  H38 UNL     1      -8.585 -15.330  22.025  1.00  0.00     0.210 HD
ENDBRANCH  27  42
TORSDOF 6
ENDMDL
