MODEL 1
REMARK minimizedAffinity -8.29416847
REMARK CNNscore 0.515042901
REMARK CNNaffinity 7.38972902
REMARK  18 active torsions:
REMARK  status: ('A' for Active; 'I' for Inactive)
REMARK    1  A    between atoms: C19_20  and  O2_21 
REMARK    2  A    between atoms: C19_20  and  C20_22 
REMARK    3  A    between atoms: C20_22  and  C21_24 
REMARK    4  A    between atoms: C21_24  and  O4_25 
REMARK    5  A    between atoms: O4_25  and  C22_26 
REMARK    6  A    between atoms: C22_26  and  C23_28 
REMARK    7  A    between atoms: C23_28  and  C24_29 
REMARK    8  A    between atoms: C24_29  and  C25_30 
REMARK       I    between atoms: C25_30  and  N1_32 
REMARK    9  A    between atoms: N1_32  and  C26_33 
REMARK   10  A    between atoms: C26_33  and  C27_34 
REMARK   11  A    between atoms: C27_34  and  C28_35 
REMARK   12  A    between atoms: C28_35  and  C29_36 
REMARK   13  A    between atoms: C29_36  and  C30_37 
REMARK   14  A    between atoms: C30_37  and  C31_38 
REMARK       I    between atoms: C31_38  and  N2_40 
REMARK   15  A    between atoms: N2_40  and  C32_41 
REMARK   16  A    between atoms: C32_41  and  C33_42 
REMARK   17  A    between atoms: C36_45  and  C37_46 
REMARK   18  A    between atoms: C37_46  and  O9_48 
ROOT
HETATM    1  C22 UNL     1       2.433   5.877   9.271  1.00  0.00     0.259 C 
HETATM    2  O5  UNL     1       3.276   5.305   8.595  1.00  0.00    -0.265 OA
ENDROOT
BRANCH   1   3
HETATM    3  O4  UNL     1       1.432   5.255   9.951  1.00  0.00    -0.314 OA
BRANCH   3   4
HETATM    4  C21 UNL     1       1.699   5.004  11.328  1.00  0.00     0.260 C 
BRANCH   4   5
HETATM    5  C20 UNL     1       0.464   4.626  12.150  1.00  0.00     0.185 C 
HETATM    6  O3  UNL     1       0.223   3.436  12.375  1.00  0.00    -0.292 OA
BRANCH   5   7
HETATM    7  C19 UNL     1      -0.361   5.783  12.768  1.00  0.00     0.128 C 
HETATM    8  C14 UNL     1      -1.917   5.616  12.743  1.00  0.00    -0.002 C 
HETATM    9  C13 UNL     1      -2.519   4.641  13.770  1.00  0.00     0.013 C 
HETATM   10  C15 UNL     1      -2.427   5.233  11.320  1.00  0.00     0.019 C 
HETATM   11  C16 UNL     1      -2.329   7.061  13.155  1.00  0.00     0.002 C 
HETATM   12  C12 UNL     1      -4.047   4.804  13.898  1.00  0.00     0.007 C 
HETATM   13  C11 UNL     1      -4.447   6.260  14.233  1.00  0.00     0.002 C 
HETATM   14  C2  UNL     1      -5.977   6.516  14.445  1.00  0.00    -0.016 C 
HETATM   15  C10 UNL     1      -3.850   7.263  13.196  1.00  0.00    -0.004 C 
HETATM   16  C1  UNL     1      -6.763   6.433  13.112  1.00  0.00     0.020 C 
HETATM   17  C3  UNL     1      -6.577   5.494  15.444  1.00  0.00     0.022 C 
HETATM   18  C7  UNL     1      -6.129   7.919  15.042  1.00  0.00    -0.068 C 
HETATM   19  C4  UNL     1      -8.005   5.826  15.869  1.00  0.00     0.084 C 
HETATM   20  C5  UNL     1      -8.148   7.263  16.311  1.00  0.00     0.149 C 
HETATM   21  O1  UNL     1      -9.088   7.636  17.010  1.00  0.00    -0.293 OA
HETATM   22  C6  UNL     1      -7.131   8.249  15.875  1.00  0.00     0.053 C 
HETATM   23  C8  UNL     1      -5.030   8.926  14.777  1.00  0.00     0.035 C 
HETATM   24  C9  UNL     1      -4.284   8.719  13.462  1.00  0.00     0.010 C 
HETATM   25  C17 UNL     1      -1.489   7.932  12.227  1.00  0.00     0.009 C 
HETATM   26  C18 UNL     1      -0.173   7.143  12.044  1.00  0.00     0.047 C 
BRANCH   7  27
HETATM   27  O2  UNL     1       0.073   5.926  14.133  1.00  0.00    -0.381 OA
HETATM   28  H27 UNL     1       0.898   6.441  14.155  1.00  0.00     0.211 HD
ENDBRANCH   7  27
ENDBRANCH   5   7
ENDBRANCH   4   5
ENDBRANCH   3   4
ENDBRANCH   1   3
BRANCH   1  29
HETATM   29  C23 UNL     1       2.322   7.376   9.357  1.00  0.00     0.120 C 
BRANCH  29  30
HETATM   30  C24 UNL     1       3.625   8.108   9.054  1.00  0.00     0.112 C 
BRANCH  30  31
HETATM   31  C25 UNL     1       4.277   8.608  10.324  1.00  0.00     0.217 C 
HETATM   32  O6  UNL     1       5.107   9.510  10.344  1.00  0.00    -0.274 OA
HETATM   33  N1  UNL     1       3.835   7.954  11.455  1.00  0.00    -0.361 N 
HETATM   34  H34 UNL     1       3.163   7.202  11.376  1.00  0.00     0.162 HD
BRANCH  33  35
HETATM   35  C26 UNL     1       4.348   8.282  12.770  1.00  0.00     0.122 C 
BRANCH  35  36
HETATM   36  C27 UNL     1       5.864   8.112  12.882  1.00  0.00     0.020 C 
BRANCH  36  37
HETATM   37  C28 UNL     1       6.334   7.364  14.133  1.00  0.00     0.002 C 
BRANCH  37  38
HETATM   38  C29 UNL     1       7.661   7.867  14.712  1.00  0.00     0.009 C 
BRANCH  38  39
HETATM   39  C30 UNL     1       7.446   8.893  15.827  1.00  0.00     0.103 C 
BRANCH  39  40
HETATM   40  C31 UNL     1       8.688   9.130  16.670  1.00  0.00     0.217 C 
HETATM   41  O7  UNL     1       9.303   8.232  17.237  1.00  0.00    -0.274 OA
HETATM   42  N2  UNL     1       9.059  10.455  16.713  1.00  0.00    -0.357 N 
HETATM   43  H45 UNL     1       8.607  11.109  16.088  1.00  0.00     0.162 HD
BRANCH  42  44
HETATM   44  C32 UNL     1      10.254  10.895  17.397  1.00  0.00     0.161 C 
BRANCH  44  45
HETATM   45  C33 UNL     1       9.913  11.537  18.717  1.00  0.00    -0.040 A 
HETATM   46  C34 UNL     1      10.893  11.716  19.702  1.00  0.00     0.010 A 
HETATM   47  C35 UNL     1      10.562  12.294  20.931  1.00  0.00     0.019 A 
HETATM   48  C36 UNL     1       9.245  12.694  21.193  1.00  0.00     0.037 A 
HETATM   49  C38 UNL     1       8.259  12.506  20.218  1.00  0.00     0.019 A 
HETATM   50  C39 UNL     1       8.592  11.927  18.990  1.00  0.00     0.010 A 
BRANCH  48  51
HETATM   51  C37 UNL     1       8.943  13.298  22.513  1.00  0.00     0.176 C 
HETATM   52  O8  UNL     1       9.229  12.822  23.597  1.00  0.00    -0.646 OA
BRANCH  51  53
HETATM   53  O9  UNL     1       8.296  14.473  22.415  1.00  0.00    -0.773 OA
HETATM   54  H50 UNL     1       8.167  14.750  23.346  1.00  0.00     0.167 HD
ENDBRANCH  51  53
ENDBRANCH  48  51
ENDBRANCH  44  45
ENDBRANCH  42  44
ENDBRANCH  39  40
ENDBRANCH  38  39
ENDBRANCH  37  38
ENDBRANCH  36  37
ENDBRANCH  35  36
ENDBRANCH  33  35
ENDBRANCH  30  31
ENDBRANCH  29  30
ENDBRANCH   1  29
TORSDOF 18
ENDMDL
