MODEL 1
REMARK minimizedAffinity -9.24183369
REMARK  6 active torsions:
REMARK  status: ('A' for Active; 'I' for Inactive)
REMARK    1  A    between atoms: C4_4  and  C5_5 
REMARK    2  A    between atoms: C5_5  and  C6_6 
REMARK    3  A    between atoms: C6_6  and  C7_7 
REMARK    4  A    between atoms: C7_7  and  C9_9 
REMARK    5  A    between atoms: C12_12  and  C13_13 
REMARK    6  A    between atoms: C13_13  and  O2_15 
ROOT
HETATM    1  C9  UNL     1      -1.547  51.900 -23.167  1.00  0.00    -0.001 C 
HETATM    2  C10 UNL     1      -0.896  51.449 -24.505  1.00  0.00     0.007 C 
HETATM    3  C11 UNL     1      -1.887  50.475 -25.174  1.00  0.00     0.026 C 
HETATM    4  C12 UNL     1      -3.217  50.706 -24.426  1.00  0.00     0.076 C 
HETATM    5  C14 UNL     1      -4.319  49.654 -24.502  1.00  0.00    -0.057 C 
HETATM    6  C15 UNL     1      -5.194  49.506 -23.473  1.00  0.00    -0.067 C 
HETATM    7  C16 UNL     1      -5.062  50.325 -22.183  1.00  0.00     0.036 C 
HETATM    8  C17 UNL     1      -3.837  51.252 -22.028  1.00  0.00     0.015 C 
HETATM    9  C18 UNL     1      -2.679  50.850 -22.950  1.00  0.00    -0.018 C 
HETATM   10  C19 UNL     1      -2.097  49.515 -22.390  1.00  0.00     0.017 C 
HETATM   11  C20 UNL     1      -6.352  48.472 -23.535  1.00  0.00    -0.015 C 
HETATM   12  C21 UNL     1      -5.831  47.221 -22.789  1.00  0.00     0.020 C 
HETATM   13  C22 UNL     1      -7.629  48.998 -22.832  1.00  0.00     0.021 C 
HETATM   14  C23 UNL     1      -8.816  48.058 -22.956  1.00  0.00     0.080 C 
HETATM   15  C24 UNL     1      -9.148  47.773 -24.399  1.00  0.00     0.135 C 
HETATM   16  O3  UNL     1     -10.327  47.769 -24.762  1.00  0.00    -0.297 OA
HETATM   17  C25 UNL     1      -8.002  47.364 -25.339  1.00  0.00     0.018 C 
HETATM   18  C26 UNL     1      -7.807  45.847 -25.222  1.00  0.00     0.023 C 
HETATM   19  C27 UNL     1      -8.476  47.650 -26.789  1.00  0.00     0.023 C 
HETATM   20  C28 UNL     1      -6.729  48.227 -25.043  1.00  0.00     0.013 C 
HETATM   21  C29 UNL     1      -5.481  47.784 -25.825  1.00  0.00     0.011 C 
HETATM   22  C30 UNL     1      -4.400  48.863 -25.787  1.00  0.00     0.036 C 
ENDROOT
BRANCH   1  23
HETATM   23  C7  UNL     1      -0.521  52.289 -22.061  1.00  0.00    -0.014 C 
HETATM   24  C8  UNL     1       0.875  52.688 -22.548  1.00  0.00     0.010 C 
BRANCH  23  25
HETATM   25  C6  UNL     1      -0.453  51.203 -20.959  1.00  0.00     0.008 C 
BRANCH  25  26
HETATM   26  C5  UNL     1      -1.100  51.588 -19.619  1.00  0.00     0.028 C 
BRANCH  26  27
HETATM   27  C4  UNL     1      -0.744  50.680 -18.477  1.00  0.00    -0.025 C 
HETATM   28  C2  UNL     1       0.150  50.890 -17.491  1.00  0.00    -0.091 C 
HETATM   29  C1  UNL     1       1.022  52.108 -17.350  1.00  0.00     0.042 C 
HETATM   30  C3  UNL     1       0.348  49.864 -16.405  1.00  0.00     0.042 C 
ENDBRANCH  26  27
ENDBRANCH  25  26
ENDBRANCH  23  25
ENDBRANCH   1  23
BRANCH   4  31
HETATM   31  C13 UNL     1      -3.894  51.987 -25.008  1.00  0.00     0.153 C 
HETATM   32  O1  UNL     1      -3.390  52.854 -25.703  1.00  0.00    -0.649 OA
BRANCH  31  33
HETATM   33  O2  UNL     1      -5.176  52.157 -24.615  1.00  0.00    -0.776 OA
HETATM   34  H21 UNL     1      -5.422  53.018 -25.016  1.00  0.00     0.167 HD
ENDBRANCH  31  33
ENDBRANCH   4  31
TORSDOF 6
ENDMDL
