MODEL 1
REMARK minimizedAffinity -7.40359735
REMARK CNNscore 0.592155933
REMARK CNNaffinity 6.14596558
REMARK  9 active torsions:
REMARK  status: ('A' for Active; 'I' for Inactive)
REMARK    1  A    between atoms: C4_4  and  C5_5 
REMARK    2  A    between atoms: C5_5  and  C6_6 
REMARK    3  A    between atoms: C6_6  and  C7_7 
REMARK    4  A    between atoms: C7_7  and  C9_9 
REMARK    5  A    between atoms: C16_16  and  O1_17 
REMARK    6  A    between atoms: C25_27  and  C27_29 
REMARK    7  A    between atoms: C27_29  and  O4_31 
REMARK    8  A    between atoms: C28_32  and  O5_33 
REMARK    9  A    between atoms: C30_35  and  O6_36 
ROOT
HETATM    1  C9  UNL     1     -15.857  43.687 -26.918  1.00  0.00    -0.002 C 
HETATM    2  C10 UNL     1     -15.350  42.398 -27.602  1.00  0.00     0.007 C 
HETATM    3  C11 UNL     1     -13.870  42.651 -27.977  1.00  0.00     0.015 C 
HETATM    4  C12 UNL     1     -13.460  43.916 -27.189  1.00  0.00    -0.005 C 
HETATM    5  C13 UNL     1     -13.077  43.455 -25.749  1.00  0.00     0.021 C 
HETATM    6  C14 UNL     1     -12.287  44.778 -27.635  1.00  0.00     0.003 C 
HETATM    7  C15 UNL     1     -12.232  46.117 -27.376  1.00  0.00    -0.030 C 
HETATM    8  C16 UNL     1     -13.457  46.823 -26.740  1.00  0.00     0.149 C 
HETATM    9  C17 UNL     1     -14.685  45.951 -26.391  1.00  0.00     0.047 C 
HETATM   10  C18 UNL     1     -14.796  44.747 -27.323  1.00  0.00    -0.026 C 
HETATM   11  C19 UNL     1     -15.029  45.259 -28.776  1.00  0.00     0.016 C 
HETATM   12  C20 UNL     1     -11.015  47.025 -27.822  1.00  0.00     0.014 C 
HETATM   13  C21 UNL     1     -11.570  47.892 -28.977  1.00  0.00     0.023 C 
HETATM   14  C22 UNL     1      -9.811  46.128 -28.276  1.00  0.00     0.029 C 
HETATM   15  C23 UNL     1     -10.263  44.989 -29.186  1.00  0.00     0.090 C 
HETATM   16  C24 UNL     1     -11.187  44.107 -28.394  1.00  0.00     0.157 C 
HETATM   17  O2  UNL     1     -11.055  42.887 -28.399  1.00  0.00    -0.293 OA
HETATM   18  C25 UNL     1      -8.502  46.879 -28.739  1.00  0.00     0.072 C 
HETATM   19  C26 UNL     1      -7.304  45.955 -28.359  1.00  0.00     0.030 C 
HETATM   20  C28 UNL     1      -8.316  48.227 -27.988  1.00  0.00     0.139 C 
HETATM   21  C29 UNL     1      -8.965  48.206 -26.608  1.00  0.00     0.065 C 
HETATM   22  C30 UNL     1     -10.474  47.881 -26.613  1.00  0.00     0.133 C 
ENDROOT
BRANCH   1  23
HETATM   23  C7  UNL     1     -17.382  43.985 -26.966  1.00  0.00    -0.014 C 
HETATM   24  C8  UNL     1     -17.955  43.961 -25.538  1.00  0.00     0.010 C 
BRANCH  23  25
HETATM   25  C6  UNL     1     -18.322  43.251 -27.951  1.00  0.00     0.008 C 
BRANCH  25  26
HETATM   26  C5  UNL     1     -18.149  43.404 -29.470  1.00  0.00     0.028 C 
BRANCH  26  27
HETATM   27  C4  UNL     1     -19.427  43.660 -30.219  1.00  0.00    -0.025 C 
HETATM   28  C2  UNL     1     -20.266  42.757 -30.764  1.00  0.00    -0.091 C 
HETATM   29  C1  UNL     1     -20.069  41.266 -30.757  1.00  0.00     0.042 C 
HETATM   30  C3  UNL     1     -21.523  43.208 -31.463  1.00  0.00     0.042 C 
ENDBRANCH  26  27
ENDBRANCH  25  26
ENDBRANCH  23  25
ENDBRANCH   1  23
BRANCH   8  31
HETATM   31  O1  UNL     1     -13.097  47.483 -25.535  1.00  0.00    -0.391 OA
HETATM   32  H25 UNL     1     -12.702  48.335 -25.819  1.00  0.00     0.210 HD
ENDBRANCH   8  31
BRANCH  22  33
HETATM   33  O6  UNL     1     -11.227  49.093 -26.454  1.00  0.00    -0.394 OA
HETATM   34  H46 UNL     1     -10.851  49.577 -25.697  1.00  0.00     0.210 HD
ENDBRANCH  22  33
BRANCH  18  35
HETATM   35  C27 UNL     1      -8.326  47.144 -30.235  1.00  0.00     0.151 C 
HETATM   36  O3  UNL     1      -7.335  46.853 -30.893  1.00  0.00    -0.649 OA
BRANCH  35  37
HETATM   37  O4  UNL     1      -9.353  47.752 -30.844  1.00  0.00    -0.776 OA
HETATM   38  H40 UNL     1      -9.026  47.898 -31.757  1.00  0.00     0.167 HD
ENDBRANCH  35  37
ENDBRANCH  18  35
BRANCH  20  39
HETATM   39  O5  UNL     1      -8.845  49.332 -28.713  1.00  0.00    -0.394 OA
HETATM   40  H42 UNL     1      -8.635  50.150 -28.228  1.00  0.00     0.210 HD
ENDBRANCH  20  39
TORSDOF 9
ENDMDL
