MODEL 1
REMARK minimizedAffinity -7.72285461
REMARK CNNscore 0.626452982
REMARK CNNaffinity 6.9223752
REMARK  4 active torsions:
REMARK  status: ('A' for Active; 'I' for Inactive)
REMARK    1  A    between atoms: C4_4  and  C5_5 
REMARK    2  A    between atoms: C5_5  and  C6_6 
REMARK    3  A    between atoms: C6_6  and  C7_7 
REMARK    4  A    between atoms: C7_7  and  C9_9 
ROOT
HETATM    1  C9  UNL     1      -1.595  52.028  -9.796  1.00  0.00    -0.001 C 
HETATM    2  C10 UNL     1      -0.787  50.699  -9.722  1.00  0.00     0.007 C 
HETATM    3  C11 UNL     1       0.709  51.056  -9.694  1.00  0.00     0.024 C 
HETATM    4  C12 UNL     1       0.735  52.565  -9.613  1.00  0.00     0.092 C 
HETATM    5  C13 UNL     1       0.713  53.060  -8.144  1.00  0.00     0.272 C 
HETATM    6  O1  UNL     1       0.267  52.485  -7.168  1.00  0.00    -0.264 OA
HETATM    7  O2  UNL     1       1.311  54.306  -8.098  1.00  0.00    -0.305 OA
HETATM    8  C14 UNL     1       1.732  54.676  -9.434  1.00  0.00     0.113 C 
HETATM    9  C15 UNL     1       0.508  55.372 -10.107  1.00  0.00     0.043 C 
HETATM   10  C16 UNL     1      -0.798  54.533 -10.040  1.00  0.00     0.014 C 
HETATM   11  C17 UNL     1      -0.550  53.038 -10.369  1.00  0.00    -0.020 C 
HETATM   12  C18 UNL     1      -0.430  52.886 -11.908  1.00  0.00     0.017 C 
HETATM   13  C19 UNL     1       1.924  53.328 -10.047  1.00  0.00     0.137 A 
HETATM   14  O3  UNL     1       2.507  53.167 -11.324  1.00  0.00    -0.364 OA
HETATM   15  C20 UNL     1       3.289  52.711 -10.197  1.00  0.00     0.162 A 
HETATM   16  C21 UNL     1       4.515  53.515  -9.921  1.00  0.00     0.041 C 
HETATM   17  C22 UNL     1       4.254  54.651  -8.907  1.00  0.00     0.010 C 
HETATM   18  C23 UNL     1       5.550  55.461  -8.625  1.00  0.00     0.056 C 
HETATM   19  C24 UNL     1       6.682  54.596  -8.063  1.00  0.00     0.018 C 
HETATM   20  C25 UNL     1       5.248  56.609  -7.664  1.00  0.00     0.131 C 
HETATM   21  O4  UNL     1       5.942  56.857  -6.679  1.00  0.00    -0.298 OA
HETATM   22  C26 UNL     1       4.097  57.508  -8.038  1.00  0.00     0.079 C 
HETATM   23  C27 UNL     1       2.850  56.674  -8.287  1.00  0.00     0.020 C 
HETATM   24  C28 UNL     1       3.039  55.555  -9.358  1.00  0.00    -0.004 C 
HETATM   25  C29 UNL     1       3.319  56.231 -10.727  1.00  0.00     0.019 C 
ENDROOT
BRANCH   1  26
HETATM   26  C7  UNL     1      -2.961  51.849 -10.515  1.00  0.00    -0.014 C 
HETATM   27  C8  UNL     1      -3.848  53.094 -10.429  1.00  0.00     0.010 C 
BRANCH  26  28
HETATM   28  C6  UNL     1      -3.754  50.589 -10.066  1.00  0.00     0.008 C 
BRANCH  28  29
HETATM   29  C5  UNL     1      -5.257  50.527 -10.389  1.00  0.00     0.028 C 
BRANCH  29  30
HETATM   30  C4  UNL     1      -5.715  49.212 -10.950  1.00  0.00    -0.025 C 
HETATM   31  C2  UNL     1      -6.974  48.743 -11.057  1.00  0.00    -0.091 C 
HETATM   32  C1  UNL     1      -8.220  49.464 -10.628  1.00  0.00     0.042 C 
HETATM   33  C3  UNL     1      -7.228  47.374 -11.638  1.00  0.00     0.042 C 
ENDBRANCH  29  30
ENDBRANCH  28  29
ENDBRANCH  26  28
ENDBRANCH   1  26
TORSDOF 4
ENDMDL
