MODEL 1
REMARK minimizedAffinity -7.58557224
REMARK CNNscore 0.680848539
REMARK CNNaffinity 6.8538518
REMARK  5 active torsions:
REMARK  status: ('A' for Active; 'I' for Inactive)
REMARK    1  A    between atoms: C4_4  and  C5_5 
REMARK    2  A    between atoms: C5_5  and  C6_6 
REMARK    3  A    between atoms: C6_6  and  C7_7 
REMARK    4  A    between atoms: C7_7  and  C9_9 
REMARK    5  A    between atoms: C26_29  and  O4_30 
ROOT
HETATM    1  C9  UNL     1       4.189  54.938  -8.525  1.00  0.00    -0.001 C 
HETATM    2  C10 UNL     1       3.289  55.909  -7.699  1.00  0.00     0.007 C 
HETATM    3  C11 UNL     1       1.832  55.698  -8.145  1.00  0.00     0.024 C 
HETATM    4  C12 UNL     1       1.894  54.512  -9.077  1.00  0.00     0.092 C 
HETATM    5  C13 UNL     1       1.769  53.170  -8.314  1.00  0.00     0.272 C 
HETATM    6  O1  UNL     1       2.064  52.940  -7.153  1.00  0.00    -0.264 OA
HETATM    7  O2  UNL     1       1.261  52.221  -9.180  1.00  0.00    -0.305 OA
HETATM    8  C14 UNL     1       1.022  52.841 -10.469  1.00  0.00     0.113 C 
HETATM    9  C15 UNL     1       2.360  52.722 -11.264  1.00  0.00     0.043 C 
HETATM   10  C16 UNL     1       3.591  53.262 -10.481  1.00  0.00     0.014 C 
HETATM   11  C17 UNL     1       3.295  54.607  -9.765  1.00  0.00    -0.020 C 
HETATM   12  C18 UNL     1       3.373  55.749 -10.811  1.00  0.00     0.017 C 
HETATM   13  C19 UNL     1       0.822  54.271 -10.065  1.00  0.00     0.137 A 
HETATM   14  O3  UNL     1       0.411  55.258 -10.992  1.00  0.00    -0.364 OA
HETATM   15  C20 UNL     1      -0.553  54.895  -9.982  1.00  0.00     0.162 A 
HETATM   16  C21 UNL     1      -1.749  54.135 -10.474  1.00  0.00     0.041 C 
HETATM   17  C22 UNL     1      -1.519  52.611 -10.351  1.00  0.00     0.009 C 
HETATM   18  C23 UNL     1      -2.799  51.683 -10.514  1.00  0.00    -0.017 C 
HETATM   19  C24 UNL     1      -3.001  50.927  -9.168  1.00  0.00     0.018 C 
HETATM   20  C25 UNL     1      -4.102  52.487 -10.745  1.00  0.00     0.018 C 
HETATM   21  C26 UNL     1      -2.674  50.599 -11.621  1.00  0.00     0.126 C 
HETATM   22  C27 UNL     1      -1.315  49.902 -11.726  1.00  0.00     0.033 C 
HETATM   23  C28 UNL     1      -0.142  50.645 -11.089  1.00  0.00     0.015 C 
HETATM   24  C29 UNL     1      -0.236  52.185 -11.161  1.00  0.00    -0.004 C 
HETATM   25  C30 UNL     1      -0.281  52.633 -12.645  1.00  0.00     0.019 C 
ENDROOT
BRANCH   1  26
HETATM   26  C7  UNL     1       5.622  55.508  -8.744  1.00  0.00    -0.014 C 
HETATM   27  C8  UNL     1       6.611  54.411  -9.156  1.00  0.00     0.010 C 
BRANCH  26  28
HETATM   28  C6  UNL     1       6.150  56.215  -7.460  1.00  0.00     0.008 C 
BRANCH  28  29
HETATM   29  C5  UNL     1       6.934  55.290  -6.514  1.00  0.00     0.028 C 
BRANCH  29  30
HETATM   30  C4  UNL     1       8.246  55.859  -6.055  1.00  0.00    -0.025 C 
HETATM   31  C2  UNL     1       8.463  56.976  -5.332  1.00  0.00    -0.091 C 
HETATM   32  C1  UNL     1       7.397  57.906  -4.824  1.00  0.00     0.042 C 
HETATM   33  C3  UNL     1       9.867  57.398  -4.983  1.00  0.00     0.042 C 
ENDBRANCH  29  30
ENDBRANCH  28  29
ENDBRANCH  26  28
ENDBRANCH   1  26
BRANCH  21  34
HETATM   34  O4  UNL     1      -3.019  51.146 -12.894  1.00  0.00    -0.395 OA
HETATM   35  H39 UNL     1      -3.066  50.410 -13.530  1.00  0.00     0.210 HD
ENDBRANCH  21  34
TORSDOF 5
ENDMDL
