MODEL 1
REMARK minimizedAffinity -9.86083031
REMARK  4 active torsions:
REMARK  status: ('A' for Active; 'I' for Inactive)
REMARK    1  A    between atoms: C2_2  and  C3_3 
REMARK    2  A    between atoms: C2_2  and  C9_9 
REMARK    3  A    between atoms: C4_4  and  C5_5 
REMARK    4  A    between atoms: C23_23  and  O1_24 
ROOT
HETATM    1  C9  UNL     1      -0.607  49.997 -19.361  1.00  0.00     0.001 C 
HETATM    2  C10 UNL     1      -1.943  49.241 -19.638  1.00  0.00     0.006 C 
HETATM    3  C11 UNL     1      -2.332  49.522 -21.095  1.00  0.00     0.009 C 
HETATM    4  C12 UNL     1      -1.131  50.273 -21.653  1.00  0.00     0.036 C 
HETATM    5  C13 UNL     1      -0.602  51.111 -20.460  1.00  0.00    -0.033 C 
HETATM    6  C14 UNL     1      -1.513  52.287 -20.045  1.00  0.00     0.016 C 
HETATM    7  C15 UNL     1       0.788  51.637 -20.871  1.00  0.00     0.010 C 
HETATM    8  C16 UNL     1       0.742  52.442 -22.184  1.00  0.00     0.010 C 
HETATM    9  C17 UNL     1       0.109  51.663 -23.354  1.00  0.00     0.039 C 
HETATM   10  C18 UNL     1      -1.265  51.005 -22.994  1.00  0.00     0.123 C 
HETATM   11  C19 UNL     1      -2.427  51.951 -23.151  1.00  0.00     0.014 C 
HETATM   12  C20 UNL     1      -2.535  52.463 -24.385  1.00  0.00     0.014 C 
HETATM   13  C21 UNL     1      -1.418  52.044 -25.322  1.00  0.00     0.124 C 
HETATM   14  C22 UNL     1      -1.649  52.556 -26.749  1.00  0.00     0.078 C 
HETATM   15  C23 UNL     1      -0.430  52.398 -27.664  1.00  0.00     0.121 C 
HETATM   16  C24 UNL     1       0.705  51.573 -27.067  1.00  0.00     0.033 C 
HETATM   17  C25 UNL     1       1.144  52.074 -25.688  1.00  0.00     0.015 C 
HETATM   18  C26 UNL     1      -0.028  52.458 -24.724  1.00  0.00     0.001 C 
HETATM   19  C27 UNL     1       0.035  53.998 -24.523  1.00  0.00     0.019 C 
HETATM   20  O2  UNL     1      -1.442  50.588 -25.377  1.00  0.00    -0.223 OA
HETATM   21  O3  UNL     1      -1.499  49.990 -24.009  1.00  0.00    -0.224 OA
ENDROOT
BRANCH   1  22
HETATM   22  C2  UNL     1      -0.452  50.391 -17.865  1.00  0.00     0.008 C 
HETATM   23  C1  UNL     1      -1.759  50.885 -17.236  1.00  0.00     0.014 C 
BRANCH  22  24
HETATM   24  C3  UNL     1       0.682  51.393 -17.702  1.00  0.00    -0.026 C 
HETATM   25  C4  UNL     1       1.395  51.649 -16.592  1.00  0.00    -0.025 C 
BRANCH  25  26
HETATM   26  C5  UNL     1       2.479  52.630 -16.488  1.00  0.00     0.012 A 
HETATM   27  C6  UNL     1       3.904  52.182 -16.709  1.00  0.00     0.013 A 
HETATM   28  C7  UNL     1       3.452  52.581 -15.331  1.00  0.00    -0.010 A 
HETATM   29  C8  UNL     1       3.380  51.557 -14.249  1.00  0.00     0.010 C 
ENDBRANCH  25  26
ENDBRANCH  22  24
ENDBRANCH   1  22
BRANCH  15  30
HETATM   30  O1  UNL     1       0.063  53.703 -27.981  1.00  0.00    -0.395 OA
HETATM   31  H33 UNL     1       0.774  53.595 -28.637  1.00  0.00     0.210 HD
ENDBRANCH  15  30
TORSDOF 4
ENDMDL
