MODEL 1
REMARK minimizedAffinity -8.12130833
REMARK CNNscore 0.548373222
REMARK CNNaffinity 6.95195818
REMARK  12 active torsions:
REMARK  status: ('A' for Active; 'I' for Inactive)
REMARK    1  A    between atoms: C4_4  and  C5_5 
REMARK    2  A    between atoms: C5_5  and  C6_6 
REMARK    3  A    between atoms: C6_6  and  C7_7 
REMARK    4  A    between atoms: C7_7  and  C9_9 
REMARK    5  A    between atoms: C18_18  and  C20_20 
REMARK    6  A    between atoms: C20_20  and  O2_22 
REMARK    7  A    between atoms: C21_23  and  O3_24 
REMARK    8  A    between atoms: O3_24  and  C22_25 
REMARK    9  A    between atoms: C24_28  and  O5_29 
REMARK   10  A    between atoms: C25_30  and  O6_31 
REMARK   11  A    between atoms: C26_32  and  O7_33 
REMARK   12  A    between atoms: C28_35  and  O8_36 
ROOT
HETATM    1  C9  UNL     1      -1.494  51.567 -21.802  1.00  0.00    -0.002 C 
HETATM    2  C10 UNL     1      -2.791  52.232 -22.335  1.00  0.00     0.006 C 
HETATM    3  C11 UNL     1      -3.976  51.331 -21.944  1.00  0.00     0.011 C 
HETATM    4  C12 UNL     1      -3.387  50.273 -20.993  1.00  0.00    -0.032 C 
HETATM    5  C13 UNL     1      -3.423  50.899 -19.564  1.00  0.00     0.016 C 
HETATM    6  C14 UNL     1      -4.129  48.911 -21.012  1.00  0.00     0.004 C 
HETATM    7  C15 UNL     1      -5.540  48.958 -20.409  1.00  0.00     0.007 C 
HETATM    8  C16 UNL     1      -6.214  47.591 -20.519  1.00  0.00     0.007 C 
HETATM    9  C17 UNL     1      -5.521  46.597 -19.573  1.00  0.00     0.018 C 
HETATM   10  C18 UNL     1      -6.153  45.166 -19.547  1.00  0.00     0.072 C 
HETATM   11  C19 UNL     1      -6.119  44.478 -20.928  1.00  0.00     0.030 C 
HETATM   12  C21 UNL     1      -5.430  44.295 -18.468  1.00  0.00     0.146 C 
HETATM   13  C27 UNL     1      -3.907  44.293 -18.653  1.00  0.00     0.066 C 
HETATM   14  C28 UNL     1      -3.326  45.703 -18.690  1.00  0.00     0.130 C 
HETATM   15  C29 UNL     1      -3.997  46.539 -19.772  1.00  0.00    -0.001 A 
HETATM   16  C30 UNL     1      -3.395  46.441 -21.153  1.00  0.00     0.024 A 
HETATM   17  C31 UNL     1      -3.275  47.763 -20.413  1.00  0.00    -0.025 A 
HETATM   18  C32 UNL     1      -1.886  48.130 -19.886  1.00  0.00     0.011 C 
HETATM   19  C33 UNL     1      -1.117  49.253 -20.604  1.00  0.00     0.011 C 
HETATM   20  C34 UNL     1      -1.945  50.083 -21.593  1.00  0.00    -0.032 C 
HETATM   21  C35 UNL     1      -1.926  49.347 -22.968  1.00  0.00     0.016 C 
ENDROOT
BRANCH  12  22
HETATM   22  O3  UNL     1      -5.932  42.947 -18.548  1.00  0.00    -0.352 OA
BRANCH  22  23
HETATM   23  C22 UNL     1      -5.181  42.088 -19.409  1.00  0.00     0.291 C 
HETATM   24  O4  UNL     1      -6.027  41.226 -20.169  1.00  0.00    -0.356 OA
HETATM   25  C23 UNL     1      -6.908  40.432 -19.360  1.00  0.00     0.205 C 
HETATM   26  C24 UNL     1      -6.277  39.934 -18.057  1.00  0.00     0.173 C 
HETATM   27  C25 UNL     1      -4.765  39.860 -18.230  1.00  0.00     0.182 C 
HETATM   28  C26 UNL     1      -4.193  41.247 -18.558  1.00  0.00     0.204 C 
BRANCH  26  29
HETATM   29  O5  UNL     1      -6.794  38.647 -17.707  1.00  0.00    -0.391 OA
HETATM   30  H39 UNL     1      -6.178  38.305 -17.026  1.00  0.00     0.210 HD
ENDBRANCH  26  29
BRANCH  27  31
HETATM   31  O6  UNL     1      -4.165  39.334 -17.034  1.00  0.00    -0.390 OA
HETATM   32  H41 UNL     1      -3.202  39.460 -17.141  1.00  0.00     0.210 HD
ENDBRANCH  27  31
BRANCH  28  33
HETATM   33  O7  UNL     1      -2.940  41.039 -19.242  1.00  0.00    -0.388 OA
HETATM   34  H43 UNL     1      -3.148  40.720 -20.142  1.00  0.00     0.210 HD
ENDBRANCH  28  33
ENDBRANCH  22  23
ENDBRANCH  12  22
BRANCH  10  35
HETATM   35  C20 UNL     1      -7.619  45.284 -19.129  1.00  0.00     0.151 C 
HETATM   36  O1  UNL     1      -8.594  45.295 -19.866  1.00  0.00    -0.649 OA
BRANCH  35  37
HETATM   37  O2  UNL     1      -7.803  45.417 -17.800  1.00  0.00    -0.776 OA
HETATM   38  H33 UNL     1      -8.777  45.487 -17.704  1.00  0.00     0.167 HD
ENDBRANCH  35  37
ENDBRANCH  10  35
BRANCH  14  39
HETATM   39  O8  UNL     1      -3.531  46.320 -17.424  1.00  0.00    -0.395 OA
HETATM   40  H47 UNL     1      -3.217  47.237 -17.500  1.00  0.00     0.210 HD
ENDBRANCH  14  39
BRANCH   1  41
HETATM   41  C7  UNL     1      -0.242  51.899 -22.670  1.00  0.00    -0.014 C 
HETATM   42  C8  UNL     1       0.765  52.771 -21.906  1.00  0.00     0.010 C 
BRANCH  41  43
HETATM   43  C6  UNL     1      -0.624  52.657 -23.975  1.00  0.00     0.008 C 
BRANCH  43  44
HETATM   44  C5  UNL     1       0.570  53.263 -24.721  1.00  0.00     0.028 C 
BRANCH  44  45
HETATM   45  C4  UNL     1       0.928  52.440 -25.932  1.00  0.00    -0.025 C 
HETATM   46  C2  UNL     1       0.546  52.641 -27.208  1.00  0.00    -0.091 C 
HETATM   47  C1  UNL     1      -0.297  53.790 -27.687  1.00  0.00     0.042 C 
HETATM   48  C3  UNL     1       0.974  51.692 -28.297  1.00  0.00     0.042 C 
ENDBRANCH  44  45
ENDBRANCH  43  44
ENDBRANCH  41  43
ENDBRANCH   1  41
TORSDOF 12
ENDMDL
