MODEL 1
REMARK minimizedAffinity -7.0796237
REMARK CNNscore 0.555197358
REMARK CNNaffinity 6.3353076
REMARK  14 active torsions:
REMARK  status: ('A' for Active; 'I' for Inactive)
REMARK    1  A    between atoms: C2_2  and  C3_3 
REMARK    2  A    between atoms: C2_2  and  C26_30 
REMARK    3  A    between atoms: C4_4  and  C5_5 
REMARK    4  A    between atoms: C6_6  and  C7_7 
REMARK    5  A    between atoms: C6_6  and  C9_9 
REMARK    6  A    between atoms: C13_13  and  C14_14 
REMARK    7  A    between atoms: C14_14  and  C15_15 
REMARK    8  A    between atoms: C15_15  and  C16_16 
REMARK    9  A    between atoms: C16_16  and  O1_17 
REMARK   10  A    between atoms: C18_19  and  C20_21 
REMARK   11  A    between atoms: C23_25  and  O3_27 
REMARK   12  A    between atoms: C25_28  and  O4_29 
REMARK   13  A    between atoms: C26_30  and  C27_31 
REMARK   14  A    between atoms: C27_31  and  C28_32 
ROOT
HETATM    1  C9  UNL     1      -8.547  47.584 -29.621  1.00  0.00     0.044 C 
HETATM    2  C10 UNL     1      -8.445  48.021 -28.160  1.00  0.00     0.013 C 
HETATM    3  C11 UNL     1      -9.771  47.580 -27.541  1.00  0.00     0.017 C 
HETATM    4  C12 UNL     1     -10.318  46.375 -28.394  1.00  0.00     0.024 C 
HETATM    5  C13 UNL     1     -10.540  45.154 -27.381  1.00  0.00     0.029 C 
HETATM    6  C17 UNL     1     -11.625  44.201 -27.890  1.00  0.00    -0.066 C 
HETATM    7  C18 UNL     1     -11.497  42.973 -28.440  1.00  0.00    -0.021 C 
HETATM    8  C19 UNL     1     -12.630  42.065 -28.829  1.00  0.00     0.052 C 
HETATM    9  C21 UNL     1     -12.987  44.883 -27.791  1.00  0.00     0.038 C 
HETATM   10  C22 UNL     1     -12.905  46.391 -28.103  1.00  0.00     0.042 C 
HETATM   11  C23 UNL     1     -11.749  46.735 -29.073  1.00  0.00     0.065 C 
HETATM   12  C24 UNL     1     -11.965  48.173 -29.575  1.00  0.00     0.047 C 
HETATM   13  C25 UNL     1      -9.203  46.191 -29.487  1.00  0.00     0.138 C 
ENDROOT
BRANCH   5  14
HETATM   14  C14 UNL     1      -9.310  44.532 -26.662  1.00  0.00     0.012 C 
BRANCH  14  15
HETATM   15  C15 UNL     1      -9.602  43.926 -25.275  1.00  0.00     0.027 C 
BRANCH  15  16
HETATM   16  C16 UNL     1      -8.428  43.217 -24.610  1.00  0.00     0.164 C 
BRANCH  16  17
HETATM   17  O1  UNL     1      -7.424  42.884 -25.556  1.00  0.00    -0.401 OA
HETATM   18  H23 UNL     1      -7.845  42.362 -26.259  1.00  0.00     0.209 HD
ENDBRANCH  16  17
ENDBRANCH  15  16
ENDBRANCH  14  15
ENDBRANCH   5  14
BRANCH  11  19
HETATM   19  O3  UNL     1     -11.984  45.907 -30.231  1.00  0.00    -0.389 OA
HETATM   20  H35 UNL     1     -11.468  46.253 -30.977  1.00  0.00     0.210 HD
ENDBRANCH  11  19
BRANCH  13  21
HETATM   21  O4  UNL     1      -8.193  45.268 -29.099  1.00  0.00    -0.394 OA
HETATM   22  H37 UNL     1      -8.500  44.385 -29.405  1.00  0.00     0.210 HD
ENDBRANCH  13  21
BRANCH   1  23
HETATM   23  C6  UNL     1      -7.272  47.643 -30.467  1.00  0.00    -0.074 C 
HETATM   24  C5  UNL     1      -6.038  47.701 -29.917  1.00  0.00     0.003 C 
BRANCH  24  25
HETATM   25  C4  UNL     1      -5.704  47.769 -28.504  1.00  0.00     0.001 C 
HETATM   26  C3  UNL     1      -4.563  48.324 -28.067  1.00  0.00     0.006 C 
BRANCH  26  27
HETATM   27  C2  UNL     1      -4.111  48.459 -26.687  1.00  0.00    -0.067 C 
HETATM   28  C1  UNL     1      -5.017  48.348 -25.697  1.00  0.00     0.019 C 
BRANCH  27  29
HETATM   29  C26 UNL     1      -2.661  48.747 -26.342  1.00  0.00     0.041 C 
BRANCH  29  30
HETATM   30  C27 UNL     1      -2.154  50.096 -26.880  1.00  0.00     0.032 C 
BRANCH  30  31
HETATM   31  C28 UNL     1      -0.971  50.649 -26.133  1.00  0.00    -0.024 C 
HETATM   32  C29 UNL     1       0.093  51.304 -26.639  1.00  0.00    -0.091 C 
HETATM   33  C30 UNL     1       0.286  51.654 -28.089  1.00  0.00     0.042 C 
HETATM   34  C31 UNL     1       1.210  51.770 -25.740  1.00  0.00     0.042 C 
ENDBRANCH  30  31
ENDBRANCH  29  30
ENDBRANCH  27  29
ENDBRANCH  26  27
ENDBRANCH  24  25
BRANCH  23  35
HETATM   35  C7  UNL     1      -7.480  47.618 -31.980  1.00  0.00     0.030 C 
HETATM   36  C8  UNL     1      -8.904  47.768 -32.513  1.00  0.00     0.010 C 
ENDBRANCH  23  35
ENDBRANCH   1  23
BRANCH   7  37
HETATM   37  C20 UNL     1     -10.176  42.377 -28.776  1.00  0.00     0.265 C 
HETATM   38  O2  UNL     1      -9.765  42.279 -29.926  1.00  0.00    -0.302 OA
ENDBRANCH   7  37
TORSDOF 14
ENDMDL
