MODEL 1
REMARK minimizedAffinity -8.51907063
REMARK CNNscore 0.621673822
REMARK CNNaffinity 7.74409485
REMARK  19 active torsions:
REMARK  status: ('A' for Active; 'I' for Inactive)
REMARK    1  A    between atoms: C14_15  and  O2_16 
REMARK    2  A    between atoms: C14_15  and  C15_17 
REMARK    3  A    between atoms: C15_17  and  C16_19 
REMARK    4  A    between atoms: C16_19  and  O4_20 
REMARK    5  A    between atoms: O4_20  and  C17_21 
REMARK    6  A    between atoms: C17_21  and  C18_23 
REMARK    7  A    between atoms: C18_23  and  C19_24 
REMARK    8  A    between atoms: C19_24  and  C20_25 
REMARK       I    between atoms: C20_25  and  N1_27 
REMARK    9  A    between atoms: N1_27  and  C21_28 
REMARK   10  A    between atoms: C21_28  and  C22_29 
REMARK   11  A    between atoms: C22_29  and  C23_30 
REMARK   12  A    between atoms: C23_30  and  C24_31 
REMARK   13  A    between atoms: C24_31  and  C25_32 
REMARK   14  A    between atoms: C25_32  and  C26_33 
REMARK       I    between atoms: C26_33  and  N2_35 
REMARK   15  A    between atoms: N2_35  and  C27_36 
REMARK   16  A    between atoms: C27_36  and  C28_37 
REMARK   17  A    between atoms: C27_36  and  C35_44 
REMARK   18  A    between atoms: C28_37  and  C29_38 
REMARK   19  A    between atoms: C35_44  and  O9_46 
ROOT
HETATM    1  C17 UNL     1      -5.145   3.077  10.661  1.00  0.00     0.259 C 
HETATM    2  O5  UNL     1      -5.931   2.678   9.809  1.00  0.00    -0.265 OA
ENDROOT
BRANCH   1   3
HETATM    3  O4  UNL     1      -5.361   3.057  12.002  1.00  0.00    -0.314 OA
BRANCH   3   4
HETATM    4  C16 UNL     1      -6.728   2.869  12.377  1.00  0.00     0.260 C 
BRANCH   4   5
HETATM    5  C15 UNL     1      -7.101   3.703  13.602  1.00  0.00     0.185 C 
HETATM    6  O3  UNL     1      -7.506   3.170  14.640  1.00  0.00    -0.292 OA
BRANCH   5   7
HETATM    7  C14 UNL     1      -6.988   5.246  13.445  1.00  0.00     0.128 C 
HETATM    8  C13 UNL     1      -7.724   5.625  12.148  1.00  0.00     0.047 C 
HETATM    9  C12 UNL     1      -9.118   6.116  12.564  1.00  0.00     0.009 C 
HETATM   10  C11 UNL     1      -9.181   6.040  14.101  1.00  0.00     0.002 C 
HETATM   11  C10 UNL     1     -10.101   7.075  14.789  1.00  0.00    -0.004 C 
HETATM   12  C36 UNL     1      -7.701   6.106  14.540  1.00  0.00    -0.002 C 
HETATM   13  C9  UNL     1     -11.528   7.003  14.227  1.00  0.00     0.010 C 
HETATM   14  C40 UNL     1      -9.557   8.523  14.718  1.00  0.00     0.002 C 
HETATM   15  C8  UNL     1     -12.463   7.943  14.974  1.00  0.00     0.035 C 
HETATM   16  C7  UNL     1     -11.954   9.363  14.958  1.00  0.00    -0.068 C 
HETATM   17  C2  UNL     1     -10.506   9.580  15.415  1.00  0.00    -0.016 C 
HETATM   18  C6  UNL     1     -12.776  10.360  14.582  1.00  0.00     0.053 C 
HETATM   19  C1  UNL     1     -10.470   9.466  16.956  1.00  0.00     0.020 C 
HETATM   20  C3  UNL     1     -10.029  11.005  15.001  1.00  0.00     0.022 C 
HETATM   21  C4  UNL     1     -11.041  12.103  15.297  1.00  0.00     0.084 C 
HETATM   22  C5  UNL     1     -12.371  11.781  14.668  1.00  0.00     0.149 C 
HETATM   23  O1  UNL     1     -13.150  12.656  14.295  1.00  0.00    -0.293 OA
HETATM   24  C39 UNL     1      -8.108   8.563  15.243  1.00  0.00     0.007 C 
HETATM   25  C38 UNL     1      -7.198   7.579  14.505  1.00  0.00     0.013 C 
HETATM   26  C37 UNL     1      -7.482   5.550  15.960  1.00  0.00     0.019 C 
BRANCH   7  27
HETATM   27  O2  UNL     1      -5.618   5.620  13.332  1.00  0.00    -0.381 OA
HETATM   28  H19 UNL     1      -5.209   5.561  14.214  1.00  0.00     0.211 HD
ENDBRANCH   7  27
ENDBRANCH   5   7
ENDBRANCH   4   5
ENDBRANCH   3   4
ENDBRANCH   1   3
BRANCH   1  29
HETATM   29  C18 UNL     1      -3.791   3.670  10.362  1.00  0.00     0.120 C 
BRANCH  29  30
HETATM   30  C19 UNL     1      -2.966   3.821  11.632  1.00  0.00     0.112 C 
BRANCH  30  31
HETATM   31  C20 UNL     1      -1.496   3.878  11.277  1.00  0.00     0.217 C 
HETATM   32  O6  UNL     1      -0.870   2.877  10.942  1.00  0.00    -0.274 OA
HETATM   33  N1  UNL     1      -0.931   5.124  11.433  1.00  0.00    -0.361 N 
HETATM   34  H26 UNL     1      -1.459   5.819  11.956  1.00  0.00     0.162 HD
BRANCH  33  35
HETATM   35  C21 UNL     1       0.503   5.311  11.350  1.00  0.00     0.122 C 
BRANCH  35  36
HETATM   36  C22 UNL     1       0.854   6.293  10.235  1.00  0.00     0.020 C 
BRANCH  36  37
HETATM   37  C23 UNL     1       2.211   6.019   9.587  1.00  0.00     0.002 C 
BRANCH  37  38
HETATM   38  C24 UNL     1       3.430   6.181  10.507  1.00  0.00     0.009 C 
BRANCH  38  39
HETATM   39  C25 UNL     1       4.351   7.351  10.159  1.00  0.00     0.103 C 
BRANCH  39  40
HETATM   40  C26 UNL     1       5.150   7.854  11.346  1.00  0.00     0.218 C 
HETATM   41  O7  UNL     1       5.649   8.973  11.401  1.00  0.00    -0.274 OA
HETATM   42  N2  UNL     1       5.289   6.920  12.348  1.00  0.00    -0.346 N 
HETATM   43  H37 UNL     1       5.060   5.958  12.131  1.00  0.00     0.163 HD
BRANCH  42  44
HETATM   44  C27 UNL     1       6.158   7.163  13.505  1.00  0.00     0.186 C 
BRANCH  44  45
HETATM   45  C28 UNL     1       7.463   7.904  13.152  1.00  0.00     0.074 C 
BRANCH  45  46
HETATM   46  C29 UNL     1       8.152   8.490  14.367  1.00  0.00    -0.056 A 
HETATM   47  C30 UNL     1       8.715   7.655  15.341  1.00  0.00     0.007 A 
HETATM   48  C31 UNL     1       9.364   8.200  16.449  1.00  0.00     0.001 A 
HETATM   49  C32 UNL     1       9.455   9.584  16.593  1.00  0.00     0.000 A 
HETATM   50  C33 UNL     1       8.898  10.423  15.632  1.00  0.00     0.001 A 
HETATM   51  C34 UNL     1       8.248   9.879  14.523  1.00  0.00     0.007 A 
ENDBRANCH  45  46
ENDBRANCH  44  45
BRANCH  44  52
HETATM   52  C35 UNL     1       5.358   7.828  14.636  1.00  0.00     0.163 C 
HETATM   53  O8  UNL     1       4.836   8.936  14.597  1.00  0.00    -0.648 OA
BRANCH  52  54
HETATM   54  O9  UNL     1       5.183   7.057  15.727  1.00  0.00    -0.775 OA
HETATM   55  H46 UNL     1       4.734   7.652  16.365  1.00  0.00     0.167 HD
ENDBRANCH  52  54
ENDBRANCH  44  52
ENDBRANCH  42  44
ENDBRANCH  39  40
ENDBRANCH  38  39
ENDBRANCH  37  38
ENDBRANCH  36  37
ENDBRANCH  35  36
ENDBRANCH  33  35
ENDBRANCH  30  31
ENDBRANCH  29  30
ENDBRANCH   1  29
TORSDOF 19
ENDMDL
