MODEL 1
REMARK minimizedAffinity -8.8169775
REMARK  9 active torsions:
REMARK  status: ('A' for Active; 'I' for Inactive)
REMARK    1  A    between atoms: C3_3  and  O1_4 
REMARK    2  A    between atoms: N1_14  and  O2_16 
REMARK    3  A    between atoms: O2_16  and  C13_17 
REMARK    4  A    between atoms: C13_17  and  C14_18 
REMARK       I    between atoms: C14_18  and  N2_20 
REMARK    5  A    between atoms: N2_20  and  C15_21 
REMARK    6  A    between atoms: C15_21  and  C16_22 
REMARK    7  A    between atoms: C15_21  and  C17_25 
REMARK    8  A    between atoms: C16_22  and  O5_24 
REMARK    9  A    between atoms: C17_25  and  C19_27 
ROOT
HETATM    1  C1  UNL     1       3.434   5.015   8.244  1.00  0.00     0.015 C 
HETATM    2  C2  UNL     1       2.861   5.950   8.735  1.00  0.00    -0.078 C 
HETATM    3  C3  UNL     1       2.180   7.109   9.331  1.00  0.00     0.128 C 
HETATM    4  C4  UNL     1       0.992   7.590   8.457  1.00  0.00     0.052 C 
HETATM    5  C5  UNL     1      -0.085   8.112   9.435  1.00  0.00     0.010 C 
HETATM    6  C6  UNL     1       0.579   8.060  10.809  1.00  0.00     0.002 C 
HETATM    7  C7  UNL     1      -0.312   8.042  12.056  1.00  0.00    -0.004 C 
HETATM    8  C8  UNL     1      -1.285   9.237  12.080  1.00  0.00     0.010 C 
HETATM    9  C9  UNL     1      -2.081   9.322  13.384  1.00  0.00     0.035 C 
HETATM   10  C10 UNL     1      -1.121   9.298  14.548  1.00  0.00    -0.069 C 
HETATM   11  C11 UNL     1      -0.980  10.388  15.323  1.00  0.00     0.030 C 
HETATM   12  C12 UNL     1       0.152  10.519  16.276  1.00  0.00     0.032 C 
HETATM   13  N1  UNL     1       0.180  11.568  17.047  1.00  0.00    -0.271 N 
ATOM     14  H1  UNL     1      -0.539  12.292  17.054  1.00  0.00     0.194 HD
HETATM   15  C21 UNL     1       1.238   9.464  16.215  1.00  0.00     0.060 C 
HETATM   16  C22 UNL     1       0.616   8.104  15.946  1.00  0.00     0.020 C 
HETATM   17  C23 UNL     1      -0.242   8.047  14.652  1.00  0.00    -0.016 C 
HETATM   18  C24 UNL     1      -1.114   6.773  14.799  1.00  0.00     0.020 C 
HETATM   19  C25 UNL     1       0.609   8.024  13.331  1.00  0.00     0.002 C 
HETATM   20  C26 UNL     1       1.665   6.892  13.262  1.00  0.00     0.007 C 
HETATM   21  C27 UNL     1       2.450   6.869  11.937  1.00  0.00     0.014 C 
HETATM   22  C28 UNL     1       1.517   6.832  10.713  1.00  0.00     0.003 C 
HETATM   23  C29 UNL     1       0.748   5.479  10.695  1.00  0.00     0.020 C 
ENDROOT
BRANCH   3  24
HETATM   24  O1  UNL     1       3.147   8.155   9.433  1.00  0.00    -0.377 OA
HETATM   25  H2  UNL     1       2.694   9.010   9.365  1.00  0.00     0.211 HD
ENDBRANCH   3  24
BRANCH  13  26
HETATM   26  O2  UNL     1       1.316  11.584  17.865  1.00  0.00    -0.271 OA
BRANCH  26  27
HETATM   27  C13 UNL     1       0.920  11.376  19.220  1.00  0.00     0.303 C 
BRANCH  27  28
HETATM   28  C14 UNL     1       1.911  10.451  19.920  1.00  0.00     0.244 C 
HETATM   29  O3  UNL     1       2.629   9.675  19.298  1.00  0.00    -0.271 OA
HETATM   30  N2  UNL     1       1.948  10.607  21.293  1.00  0.00    -0.344 N 
HETATM   31  H16 UNL     1       1.410  11.387  21.655  1.00  0.00     0.163 HD
BRANCH  30  32
HETATM   32  C15 UNL     1       2.957  10.010  22.171  1.00  0.00     0.186 C 
BRANCH  32  33
HETATM   33  C16 UNL     1       2.353   8.733  22.784  1.00  0.00     0.163 C 
HETATM   34  O4  UNL     1       1.828   7.794  22.208  1.00  0.00    -0.648 OA
BRANCH  33  35
HETATM   35  O5  UNL     1       2.488   8.690  24.129  1.00  0.00    -0.775 OA
HETATM   36  H18 UNL     1       2.063   7.839  24.370  1.00  0.00     0.167 HD
ENDBRANCH  33  35
ENDBRANCH  32  33
BRANCH  32  37
HETATM   37  C17 UNL     1       3.617  10.974  23.193  1.00  0.00     0.014 C 
HETATM   38  C18 UNL     1       5.149  10.993  23.051  1.00  0.00     0.012 C 
BRANCH  37  39
HETATM   39  C19 UNL     1       3.119  12.434  23.046  1.00  0.00     0.002 C 
HETATM   40  C20 UNL     1       3.620  13.173  21.815  1.00  0.00     0.005 C 
ENDBRANCH  37  39
ENDBRANCH  32  37
ENDBRANCH  30  32
ENDBRANCH  27  28
ENDBRANCH  26  27
ENDBRANCH  13  26
TORSDOF 9
ENDMDL
