MODEL 1
REMARK minimizedAffinity -9.20395851
REMARK CNNscore 0.573886514
REMARK CNNaffinity 6.95109892
REMARK  11 active torsions:
REMARK  status: ('A' for Active; 'I' for Inactive)
REMARK    1  A    between atoms: C2_2  and  C3_3 
REMARK    2  A    between atoms: C3_3  and  N1_4 
REMARK       I    between atoms: N1_4  and  C4_5 
REMARK    3  A    between atoms: C4_5  and  C5_7 
REMARK       I    between atoms: N2_8  and  C6_9 
REMARK    4  A    between atoms: C6_9  and  C7_11 
REMARK    5  A    between atoms: C7_11  and  O3_12 
REMARK    6  A    between atoms: C7_11  and  C8_13 
REMARK    7  A    between atoms: C8_13  and  C9_14 
REMARK    8  A    between atoms: C8_13  and  N3_21 
REMARK    9  A    between atoms: C9_14  and  C10_15 
REMARK       I    between atoms: N3_21  and  C16_22 
REMARK   10  A    between atoms: C16_22  and  C17_24 
REMARK   11  A    between atoms: C21_28  and  O5_29 
ROOT
HETATM    1  C8  UNL     1      -3.472  50.408 -22.836  1.00  0.00     0.127 C 
ENDROOT
BRANCH   1   2
HETATM    2  C7  UNL     1      -4.539  49.979 -21.789  1.00  0.00     0.233 C 
BRANCH   2   3
HETATM    3  C6  UNL     1      -3.931  49.569 -20.430  1.00  0.00     0.252 C 
HETATM    4  N2  UNL     1      -4.763  49.397 -19.328  1.00  0.00    -0.326 N 
HETATM    5  C5  UNL     1      -4.168  49.026 -18.028  1.00  0.00     0.198 C 
HETATM    6  C24 UNL     1      -6.052  48.753 -19.482  1.00  0.00     0.201 C 
HETATM    7  C25 UNL     1      -4.230  47.486 -17.912  1.00  0.00     0.032 C 
HETATM    8  S1  UNL     1      -5.843  47.094 -18.754  1.00  0.00    -0.137 SA
HETATM    9  C26 UNL     1      -4.373  46.992 -16.467  1.00  0.00     0.029 C 
HETATM   10  C27 UNL     1      -3.136  46.715 -18.652  1.00  0.00     0.029 C 
HETATM   11  O2  UNL     1      -2.714  49.364 -20.371  1.00  0.00    -0.270 OA
BRANCH   5  12
HETATM   12  C4  UNL     1      -2.907  49.858 -17.651  1.00  0.00     0.242 C 
HETATM   13  N1  UNL     1      -1.697  49.214 -17.577  1.00  0.00    -0.356 N 
HETATM   14  H6  UNL     1      -1.639  48.209 -17.597  1.00  0.00     0.162 HD
HETATM   15  O1  UNL     1      -3.004  51.052 -17.351  1.00  0.00    -0.271 OA
BRANCH  13  16
HETATM   16  C3  UNL     1      -0.520  49.930 -17.150  1.00  0.00     0.149 C 
BRANCH  16  17
HETATM   17  C2  UNL     1       0.312  49.078 -16.239  1.00  0.00    -0.018 C 
HETATM   18  C1  UNL     1       0.841  49.436 -15.060  1.00  0.00     0.008 C 
ENDBRANCH  16  17
ENDBRANCH  13  16
ENDBRANCH   5  12
ENDBRANCH   2   3
BRANCH   2  19
HETATM   19  O3  UNL     1      -5.580  50.932 -21.579  1.00  0.00    -0.384 OA
HETATM   20  H9  UNL     1      -6.222  50.510 -20.978  1.00  0.00     0.210 HD
ENDBRANCH   2  19
ENDBRANCH   1   2
BRANCH   1  21
HETATM   21  C9  UNL     1      -2.797  49.203 -23.541  1.00  0.00     0.066 C 
BRANCH  21  22
HETATM   22  C10 UNL     1      -3.435  48.850 -24.867  1.00  0.00    -0.056 A 
HETATM   23  C11 UNL     1      -4.795  48.513 -24.925  1.00  0.00     0.007 A 
HETATM   24  C12 UNL     1      -5.389  48.171 -26.140  1.00  0.00     0.001 A 
HETATM   25  C13 UNL     1      -4.632  48.162 -27.309  1.00  0.00     0.000 A 
HETATM   26  C14 UNL     1      -3.280  48.500 -27.264  1.00  0.00     0.001 A 
HETATM   27  C15 UNL     1      -2.685  48.845 -26.050  1.00  0.00     0.007 A 
ENDBRANCH  21  22
ENDBRANCH   1  21
BRANCH   1  28
HETATM   28  N3  UNL     1      -2.450  51.264 -22.210  1.00  0.00    -0.349 N 
HETATM   29  C16 UNL     1      -1.202  51.428 -22.774  1.00  0.00     0.252 C 
HETATM   30  O4  UNL     1      -0.844  50.903 -23.821  1.00  0.00    -0.268 OA
HETATM   31  H18 UNL     1      -2.592  51.603 -21.264  1.00  0.00     0.163 HD
BRANCH  29  32
HETATM   32  C17 UNL     1      -0.252  52.244 -21.980  1.00  0.00     0.040 A 
HETATM   33  C18 UNL     1      -0.183  51.961 -20.607  1.00  0.00     0.018 A 
HETATM   34  C19 UNL     1       0.648  52.714 -19.781  1.00  0.00     0.004 A 
HETATM   35  C20 UNL     1       1.411  53.747 -20.320  1.00  0.00     0.037 A 
HETATM   36  C21 UNL     1       1.355  54.010 -21.690  1.00  0.00     0.072 A 
HETATM   37  C22 UNL     1       0.546  53.255 -22.551  1.00  0.00    -0.013 A 
HETATM   38  C23 UNL     1       0.546  53.526 -24.030  1.00  0.00     0.052 C 
BRANCH  36  39
HETATM   39  O5  UNL     1       2.109  55.024 -22.214  1.00  0.00    -0.360 OA
HETATM   40  H22 UNL     1       2.717  55.351 -21.531  1.00  0.00     0.217 HD
ENDBRANCH  36  39
ENDBRANCH  29  32
ENDBRANCH   1  28
TORSDOF 11
ENDMDL
