MODEL 1
REMARK minimizedAffinity -8.15461254
REMARK CNNscore 0.879420578
REMARK CNNaffinity 6.74073458
REMARK  9 active torsions:
REMARK  status: ('A' for Active; 'I' for Inactive)
REMARK    1  A    between atoms: C2_2  and  C30_35 
REMARK    2  A    between atoms: C3_3  and  C4_4 
REMARK    3  A    between atoms: C4_4  and  O1_5 
REMARK    4  A    between atoms: C4_4  and  C5_6 
REMARK    5  A    between atoms: C5_6  and  C6_7 
REMARK    6  A    between atoms: C6_7  and  C8_9 
REMARK    7  A    between atoms: C10_11  and  O2_12 
REMARK    8  A    between atoms: C29_33  and  O5_34 
REMARK    9  A    between atoms: C30_35  and  O7_37 
ROOT
HETATM    1  C8  UNL     1     -13.331  46.088 -27.814  1.00  0.00     0.001 C 
HETATM    2  C9  UNL     1     -12.906  47.057 -26.670  1.00  0.00     0.038 C 
HETATM    3  C10 UNL     1     -11.469  47.506 -26.986  1.00  0.00     0.132 C 
HETATM    4  C11 UNL     1     -11.327  47.269 -28.509  1.00  0.00     0.017 C 
HETATM    5  C12 UNL     1     -12.062  48.425 -29.270  1.00  0.00     0.023 C 
HETATM    6  C13 UNL     1      -9.932  47.195 -29.122  1.00  0.00    -0.029 C 
HETATM    7  C14 UNL     1      -9.736  46.556 -30.305  1.00  0.00     0.002 C 
HETATM    8  C15 UNL     1     -10.906  45.797 -30.922  1.00  0.00     0.157 C 
HETATM    9  O3  UNL     1     -10.837  45.356 -32.069  1.00  0.00    -0.293 OA
HETATM   10  C16 UNL     1     -12.192  45.568 -30.125  1.00  0.00     0.094 C 
HETATM   11  C17 UNL     1     -12.016  45.861 -28.632  1.00  0.00    -0.019 C 
HETATM   12  C18 UNL     1     -11.173  44.706 -28.019  1.00  0.00     0.017 C 
HETATM   13  C19 UNL     1      -8.378  46.542 -31.048  1.00  0.00    -0.008 C 
HETATM   14  C20 UNL     1      -7.821  45.105 -30.908  1.00  0.00     0.021 C 
HETATM   15  C21 UNL     1      -8.541  46.871 -32.569  1.00  0.00     0.022 C 
HETATM   16  C22 UNL     1      -7.364  47.585 -33.230  1.00  0.00     0.080 C 
HETATM   17  C23 UNL     1      -6.059  47.282 -32.538  1.00  0.00     0.135 C 
HETATM   18  O4  UNL     1      -5.102  46.821 -33.161  1.00  0.00    -0.297 OA
HETATM   19  C24 UNL     1      -5.971  47.658 -31.056  1.00  0.00     0.018 C 
HETATM   20  C25 UNL     1      -4.957  46.744 -30.341  1.00  0.00     0.023 C 
HETATM   21  C26 UNL     1      -5.407  49.094 -31.001  1.00  0.00     0.023 C 
HETATM   22  C27 UNL     1      -7.413  47.632 -30.441  1.00  0.00     0.016 C 
HETATM   23  C28 UNL     1      -7.420  47.586 -28.907  1.00  0.00     0.043 C 
HETATM   24  C29 UNL     1      -8.816  47.871 -28.359  1.00  0.00     0.149 C 
ENDROOT
BRANCH   1  25
HETATM   25  C6  UNL     1     -14.241  44.919 -27.330  1.00  0.00    -0.011 C 
HETATM   26  C7  UNL     1     -15.368  44.496 -28.281  1.00  0.00     0.010 C 
BRANCH  25  27
HETATM   27  C5  UNL     1     -14.746  45.157 -25.887  1.00  0.00     0.040 C 
BRANCH  27  28
HETATM   28  C4  UNL     1     -15.930  44.269 -25.457  1.00  0.00     0.142 C 
BRANCH  28  29
HETATM   29  C3  UNL     1     -17.130  45.061 -25.011  1.00  0.00     0.018 C 
HETATM   30  C2  UNL     1     -17.186  46.313 -24.507  1.00  0.00     0.010 C 
HETATM   31  C1  UNL     1     -16.030  47.250 -24.334  1.00  0.00     0.055 C 
BRANCH  30  32
HETATM   32  C30 UNL     1     -18.536  46.819 -24.162  1.00  0.00     0.171 C 
HETATM   33  O6  UNL     1     -19.247  47.518 -24.861  1.00  0.00    -0.646 OA
BRANCH  32  34
HETATM   34  O7  UNL     1     -18.928  46.432 -22.938  1.00  0.00    -0.773 OA
HETATM   35  H44 UNL     1     -19.811  46.842 -22.836  1.00  0.00     0.167 HD
ENDBRANCH  32  34
ENDBRANCH  30  32
ENDBRANCH  28  29
BRANCH  28  36
HETATM   36  O1  UNL     1     -15.511  43.420 -24.392  1.00  0.00    -0.392 OA
HETATM   37  H6  UNL     1     -14.854  42.804 -24.753  1.00  0.00     0.210 HD
ENDBRANCH  28  36
ENDBRANCH  27  28
ENDBRANCH  25  27
ENDBRANCH   1  25
BRANCH   3  38
HETATM   38  O2  UNL     1     -11.242  48.861 -26.621  1.00  0.00    -0.394 OA
HETATM   39  H17 UNL     1     -11.516  48.963 -25.691  1.00  0.00     0.210 HD
ENDBRANCH   3  38
BRANCH  24  40
HETATM   40  O5  UNL     1      -9.034  49.275 -28.385  1.00  0.00    -0.391 OA
HETATM   41  H43 UNL     1      -9.788  49.446 -27.780  1.00  0.00     0.210 HD
ENDBRANCH  24  40
TORSDOF 9
ENDMDL
