MODEL 1
REMARK minimizedAffinity -6.95449877
REMARK CNNscore 0.866564989
REMARK CNNaffinity 7.12606859
REMARK  14 active torsions:
REMARK  status: ('A' for Active; 'I' for Inactive)
REMARK    1  A    between atoms: C5_5  and  C6_6 
REMARK    2  A    between atoms: C6_6  and  C8_8 
REMARK    3  A    between atoms: C8_8  and  O1_9 
REMARK    4  A    between atoms: O1_9  and  C9_10 
REMARK    5  A    between atoms: C17_20  and  O4_21 
REMARK    6  A    between atoms: C19_23  and  O5_24 
REMARK    7  A    between atoms: O5_24  and  C20_25 
REMARK    8  A    between atoms: C20_25  and  C21_27 
REMARK    9  A    between atoms: C21_27  and  C22_28 
REMARK   10  A    between atoms: C21_27  and  O7_30 
REMARK   11  A    between atoms: O7_30  and  C24_31 
REMARK   12  A    between atoms: C24_31  and  C25_33 
REMARK   13  A    between atoms: C25_33  and  C26_34 
REMARK   14  A    between atoms: C28_36  and  O9_38 
ROOT
HETATM    1  C1  UNL     1      -6.113   8.362  15.298  1.00  0.00     0.015 C 
HETATM    2  C2  UNL     1      -4.826   8.210  14.936  1.00  0.00    -0.082 C 
HETATM    3  C3  UNL     1      -4.435   7.517  13.662  1.00  0.00     0.034 C 
HETATM    4  C4  UNL     1      -3.417   8.365  12.914  1.00  0.00     0.010 C 
HETATM    5  C5  UNL     1      -2.109   8.614  13.702  1.00  0.00    -0.001 C 
HETATM    6  C11 UNL     1      -2.245   8.369  15.238  1.00  0.00     0.033 C 
HETATM    7  C12 UNL     1      -1.505   9.358  16.140  1.00  0.00     0.163 C 
HETATM    8  O3  UNL     1      -2.257  10.544  15.878  1.00  0.00    -0.376 OA
HETATM    9  C13 UNL     1      -3.627  10.216  16.094  1.00  0.00     0.134 C 
HETATM   10  C14 UNL     1      -3.921  10.622  17.556  1.00  0.00     0.068 C 
HETATM   11  C15 UNL     1      -3.298  11.967  18.001  1.00  0.00    -0.058 C 
HETATM   12  C16 UNL     1      -4.132  12.941  18.414  1.00  0.00     0.017 C 
HETATM   13  C17 UNL     1      -1.752  12.165  17.930  1.00  0.00     0.149 C 
HETATM   14  C18 UNL     1      -0.898  11.022  18.528  1.00  0.00     0.072 C 
HETATM   15  C19 UNL     1       0.237  10.360  17.677  1.00  0.00     0.171 C 
HETATM   16  C28 UNL     1      -0.031   9.765  16.214  1.00  0.00     0.107 C 
HETATM   17  C29 UNL     1       0.391  10.761  15.123  1.00  0.00     0.051 C 
HETATM   18  C30 UNL     1      -3.687   8.684  15.798  1.00  0.00     0.050 C 
ENDROOT
BRANCH  15  19
HETATM   19  O5  UNL     1       1.383  11.238  17.678  1.00  0.00    -0.311 OA
BRANCH  19  20
HETATM   20  C20 UNL     1       2.541  10.702  18.170  1.00  0.00     0.289 C 
HETATM   21  O6  UNL     1       3.418  10.185  17.486  1.00  0.00    -0.262 OA
BRANCH  20  22
HETATM   22  C21 UNL     1       2.586  10.833  19.694  1.00  0.00     0.231 C 
BRANCH  22  23
HETATM   23  C22 UNL     1       2.750  12.311  20.068  1.00  0.00     0.038 C 
HETATM   24  C23 UNL     1       1.497  12.884  20.717  1.00  0.00     0.008 C 
ENDBRANCH  22  23
BRANCH  22  25
HETATM   25  O7  UNL     1       3.712  10.107  20.217  1.00  0.00    -0.306 OA
BRANCH  25  26
HETATM   26  C24 UNL     1       4.565  10.866  20.958  1.00  0.00     0.259 C 
HETATM   27  O8  UNL     1       5.429  11.597  20.494  1.00  0.00    -0.265 OA
BRANCH  26  28
HETATM   28  C25 UNL     1       4.286  10.691  22.432  1.00  0.00     0.111 C 
BRANCH  28  29
HETATM   29  C26 UNL     1       4.008   9.236  22.792  1.00  0.00     0.005 C 
HETATM   30  C27 UNL     1       2.629   9.040  23.404  1.00  0.00     0.005 C 
ENDBRANCH  28  29
ENDBRANCH  26  28
ENDBRANCH  25  26
ENDBRANCH  22  25
ENDBRANCH  20  22
ENDBRANCH  19  20
ENDBRANCH  15  19
BRANCH  16  31
HETATM   31  O9  UNL     1       0.787   8.604  15.995  1.00  0.00    -0.385 OA
HETATM   32  H45 UNL     1       1.111   8.252  16.845  1.00  0.00     0.210 HD
ENDBRANCH  16  31
BRANCH  13  33
HETATM   33  O4  UNL     1      -1.406  13.362  18.648  1.00  0.00    -0.391 OA
HETATM   34  H25 UNL     1      -1.699  13.231  19.567  1.00  0.00     0.210 HD
ENDBRANCH  13  33
BRANCH   5  35
HETATM   35  C6  UNL     1      -0.886   7.856  13.087  1.00  0.00     0.010 C 
HETATM   36  C7  UNL     1      -1.179   6.394  12.724  1.00  0.00     0.012 C 
BRANCH  35  37
HETATM   37  C8  UNL     1      -0.329   8.597  11.855  1.00  0.00     0.183 C 
BRANCH  37  38
HETATM   38  O1  UNL     1      -0.060   7.653  10.803  1.00  0.00    -0.321 OA
BRANCH  38  39
HETATM   39  C9  UNL     1       0.583   8.126   9.703  1.00  0.00     0.254 C 
HETATM   40  C10 UNL     1      -0.410   8.697   8.740  1.00  0.00     0.126 C 
HETATM   41  O2  UNL     1       1.792   8.110   9.511  1.00  0.00    -0.266 OA
ENDBRANCH  38  39
ENDBRANCH  37  38
ENDBRANCH  35  37
ENDBRANCH   5  35
TORSDOF 14
ENDMDL
