MODEL 1
REMARK minimizedAffinity -9.54055119
REMARK  8 active torsions:
REMARK  status: ('A' for Active; 'I' for Inactive)
REMARK    1  A    between atoms: C2_2  and  C3_3 
REMARK    2  A    between atoms: C2_2  and  C9_11 
REMARK    3  A    between atoms: C3_3  and  C4_4 
REMARK    4  A    between atoms: C4_4  and  C5_5 
REMARK    5  A    between atoms: C6_6  and  C7_7 
REMARK    6  A    between atoms: C6_6  and  C8_9 
REMARK    7  A    between atoms: C7_7  and  O1_8 
REMARK    8  A    between atoms: C8_9  and  O2_10 
ROOT
HETATM    1  C9  UNL     1      -0.544  50.551 -21.838  1.00  0.00    -0.001 C 
HETATM    2  C10 UNL     1      -0.433  50.221 -20.323  1.00  0.00     0.007 C 
HETATM    3  C11 UNL     1      -1.709  49.454 -19.934  1.00  0.00     0.015 C 
HETATM    4  C12 UNL     1      -2.333  49.002 -21.269  1.00  0.00    -0.004 C 
HETATM    5  C13 UNL     1      -1.587  47.701 -21.699  1.00  0.00     0.021 C 
HETATM    6  C14 UNL     1      -3.813  48.648 -21.370  1.00  0.00     0.007 C 
HETATM    7  C15 UNL     1      -4.518  48.759 -22.527  1.00  0.00     0.007 C 
HETATM    8  C16 UNL     1      -3.802  49.381 -23.720  1.00  0.00     0.157 C 
HETATM    9  O3  UNL     1      -4.361  49.486 -24.810  1.00  0.00    -0.293 OA
HETATM   10  C17 UNL     1      -2.377  49.908 -23.589  1.00  0.00     0.094 C 
HETATM   11  C18 UNL     1      -2.046  50.279 -22.148  1.00  0.00    -0.022 C 
HETATM   12  C19 UNL     1      -2.915  51.504 -21.734  1.00  0.00     0.017 C 
HETATM   13  C20 UNL     1      -6.015  48.357 -22.684  1.00  0.00    -0.007 C 
HETATM   14  C21 UNL     1      -6.798  49.688 -22.631  1.00  0.00     0.021 C 
HETATM   15  C22 UNL     1      -6.330  47.616 -24.018  1.00  0.00     0.022 C 
HETATM   16  C23 UNL     1      -7.760  47.102 -24.119  1.00  0.00     0.080 C 
HETATM   17  C24 UNL     1      -8.114  46.190 -22.974  1.00  0.00     0.135 C 
HETATM   18  O4  UNL     1      -8.715  45.136 -23.191  1.00  0.00    -0.297 OA
HETATM   19  C25 UNL     1      -7.802  46.680 -21.555  1.00  0.00     0.018 C 
HETATM   20  C26 UNL     1      -7.809  45.436 -20.627  1.00  0.00     0.023 C 
HETATM   21  C27 UNL     1      -8.949  47.590 -21.089  1.00  0.00     0.023 C 
HETATM   22  C28 UNL     1      -6.378  47.337 -21.537  1.00  0.00     0.021 C 
HETATM   23  C29 UNL     1      -5.988  47.917 -20.177  1.00  0.00     0.090 C 
HETATM   24  C30 UNL     1      -4.498  48.136 -20.138  1.00  0.00     0.157 C 
HETATM   25  O5  UNL     1      -3.874  47.925 -19.100  1.00  0.00    -0.293 OA
ENDROOT
BRANCH   1  26
HETATM   26  C2  UNL     1       0.212  51.857 -22.234  1.00  0.00    -0.014 C 
HETATM   27  C1  UNL     1       0.547  52.856 -21.123  1.00  0.00     0.010 C 
BRANCH  26  28
HETATM   28  C3  UNL     1      -0.339  52.538 -23.515  1.00  0.00     0.008 C 
BRANCH  28  29
HETATM   29  C4  UNL     1       0.687  53.116 -24.496  1.00  0.00     0.028 C 
BRANCH  29  30
HETATM   30  C5  UNL     1       0.353  52.722 -25.911  1.00  0.00    -0.020 C 
HETATM   31  C6  UNL     1       1.118  51.989 -26.749  1.00  0.00    -0.037 C 
BRANCH  31  32
HETATM   32  C7  UNL     1       2.441  51.370 -26.376  1.00  0.00     0.200 C 
BRANCH  32  33
HETATM   33  O1  UNL     1       3.353  51.521 -27.455  1.00  0.00    -0.397 OA
HETATM   34  H12 UNL     1       2.826  51.344 -28.266  1.00  0.00     0.209 HD
ENDBRANCH  32  33
ENDBRANCH  31  32
BRANCH  31  35
HETATM   35  C8  UNL     1       0.680  51.721 -28.166  1.00  0.00     0.200 C 
BRANCH  35  36
HETATM   36  O2  UNL     1      -0.078  52.837 -28.612  1.00  0.00    -0.397 OA
HETATM   37  H15 UNL     1      -0.258  52.687 -29.558  1.00  0.00     0.209 HD
ENDBRANCH  35  36
ENDBRANCH  31  35
ENDBRANCH  29  30
ENDBRANCH  28  29
ENDBRANCH  26  28
ENDBRANCH   1  26
TORSDOF 8
ENDMDL
