MODEL 1
REMARK minimizedAffinity -7.85773134
REMARK CNNscore 0.540686607
REMARK CNNaffinity 7.60880136
REMARK  19 active torsions:
REMARK  status: ('A' for Active; 'I' for Inactive)
REMARK    1  A    between atoms: C2_2  and  C3_3 
REMARK    2  A    between atoms: C3_3  and  C5_5 
REMARK    3  A    between atoms: C5_5  and  N1_6 
REMARK    4  A    between atoms: C5_5  and  C37_46 
REMARK       I    between atoms: N1_6  and  C6_7 
REMARK    5  A    between atoms: C6_7  and  C7_9 
REMARK    6  A    between atoms: C7_9  and  C8_10 
REMARK    7  A    between atoms: C8_10  and  C9_11 
REMARK    8  A    between atoms: C9_11  and  C10_12 
REMARK    9  A    between atoms: C10_12  and  C11_13 
REMARK   10  A    between atoms: C11_13  and  N2_14 
REMARK       I    between atoms: N2_14  and  C12_15 
REMARK   11  A    between atoms: C12_15  and  C13_17 
REMARK   12  A    between atoms: C13_17  and  C14_18 
REMARK   13  A    between atoms: C14_18  and  C15_19 
REMARK   14  A    between atoms: C15_19  and  O4_21 
REMARK   15  A    between atoms: O4_21  and  C16_22 
REMARK   16  A    between atoms: C16_22  and  C17_23 
REMARK   17  A    between atoms: C17_23  and  C18_25 
REMARK   18  A    between atoms: C18_25  and  O6_26 
REMARK   19  A    between atoms: C37_46  and  O9_48 
ROOT
HETATM    1  C15 UNL     1      -7.795   3.869  12.780  1.00  0.00     0.259 C 
HETATM    2  O3  UNL     1      -8.475   2.857  12.879  1.00  0.00    -0.265 OA
ENDROOT
BRANCH   1   3
HETATM    3  C14 UNL     1      -6.308   3.863  12.514  1.00  0.00     0.120 C 
BRANCH   3   4
HETATM    4  C13 UNL     1      -5.902   3.087  11.266  1.00  0.00     0.112 C 
BRANCH   4   5
HETATM    5  C12 UNL     1      -4.444   3.300  10.915  1.00  0.00     0.217 C 
HETATM    6  N2  UNL     1      -3.593   3.139  11.992  1.00  0.00    -0.361 N 
HETATM    7  H22 UNL     1      -4.007   3.205  12.912  1.00  0.00     0.162 HD
HETATM    8  O2  UNL     1      -4.061   3.580   9.783  1.00  0.00    -0.274 OA
BRANCH   6   9
HETATM    9  C11 UNL     1      -2.181   3.437  11.852  1.00  0.00     0.122 C 
BRANCH   9  10
HETATM   10  C10 UNL     1      -1.911   4.882  11.429  1.00  0.00     0.020 C 
BRANCH  10  11
HETATM   11  C9  UNL     1      -1.471   5.811  12.566  1.00  0.00     0.002 C 
BRANCH  11  12
HETATM   12  C8  UNL     1      -0.205   5.357  13.296  1.00  0.00     0.009 C 
BRANCH  12  13
HETATM   13  C7  UNL     1       1.004   5.318  12.357  1.00  0.00     0.103 C 
BRANCH  13  14
HETATM   14  C6  UNL     1       1.472   6.703  11.951  1.00  0.00     0.218 C 
HETATM   15  N1  UNL     1       1.678   6.831  10.597  1.00  0.00    -0.346 N 
HETATM   16  H11 UNL     1       1.843   5.972  10.082  1.00  0.00     0.163 HD
HETATM   17  O1  UNL     1       1.676   7.602  12.757  1.00  0.00    -0.274 OA
BRANCH  15  18
HETATM   18  C5  UNL     1       2.340   8.019  10.033  1.00  0.00     0.186 C 
BRANCH  18  19
HETATM   19  C3  UNL     1       1.742   8.360   8.642  1.00  0.00     0.014 C 
HETATM   20  C4  UNL     1       0.235   8.063   8.584  1.00  0.00     0.012 C 
BRANCH  19  21
HETATM   21  C2  UNL     1       2.489   7.589   7.522  1.00  0.00     0.002 C 
HETATM   22  C1  UNL     1       1.613   7.209   6.333  1.00  0.00     0.005 C 
ENDBRANCH  19  21
ENDBRANCH  18  19
BRANCH  18  23
HETATM   23  C37 UNL     1       3.848   7.710   9.948  1.00  0.00     0.163 C 
HETATM   24  O8  UNL     1       4.763   8.516   9.898  1.00  0.00    -0.648 OA
BRANCH  23  25
HETATM   25  O9  UNL     1       4.126   6.385   9.834  1.00  0.00    -0.775 OA
HETATM   26  H56 UNL     1       5.106   6.372   9.765  1.00  0.00     0.167 HD
ENDBRANCH  23  25
ENDBRANCH  18  23
ENDBRANCH  15  18
ENDBRANCH  13  14
ENDBRANCH  12  13
ENDBRANCH  11  12
ENDBRANCH  10  11
ENDBRANCH   9  10
ENDBRANCH   6   9
ENDBRANCH   4   5
ENDBRANCH   3   4
ENDBRANCH   1   3
BRANCH   1  27
HETATM   27  O4  UNL     1      -8.253   5.129  13.003  1.00  0.00    -0.314 OA
BRANCH  27  28
HETATM   28  C16 UNL     1      -8.429   5.470  14.369  1.00  0.00     0.260 C 
BRANCH  28  29
HETATM   29  C17 UNL     1      -8.000   6.860  14.854  1.00  0.00     0.185 C 
HETATM   30  O5  UNL     1      -8.701   7.845  14.593  1.00  0.00    -0.292 OA
BRANCH  29  31
HETATM   31  C18 UNL     1      -6.624   7.005  15.558  1.00  0.00     0.128 C 
HETATM   32  C19 UNL     1      -5.883   5.631  15.541  1.00  0.00     0.047 C 
HETATM   33  C20 UNL     1      -4.381   5.938  15.447  1.00  0.00     0.009 C 
HETATM   34  C21 UNL     1      -4.274   7.461  15.492  1.00  0.00     0.002 C 
HETATM   35  C22 UNL     1      -3.003   8.083  14.876  1.00  0.00    -0.004 C 
HETATM   36  C35 UNL     1      -5.593   7.957  14.854  1.00  0.00    -0.002 C 
HETATM   37  C23 UNL     1      -1.768   7.723  15.732  1.00  0.00     0.010 C 
HETATM   38  C32 UNL     1      -3.184   9.630  14.633  1.00  0.00     0.002 C 
HETATM   39  C24 UNL     1      -1.432   8.795  16.758  1.00  0.00     0.035 C 
HETATM   40  C25 UNL     1      -1.151  10.129  16.115  1.00  0.00    -0.068 C 
HETATM   41  C26 UNL     1      -0.330  11.003  16.728  1.00  0.00     0.053 C 
HETATM   42  C30 UNL     1      -1.839  10.438  14.788  1.00  0.00    -0.016 C 
HETATM   43  C27 UNL     1      -0.048  12.345  16.158  1.00  0.00     0.149 C 
HETATM   44  O7  UNL     1       0.806  13.054  16.689  1.00  0.00    -0.293 OA
HETATM   45  C28 UNL     1      -0.793  12.785  14.918  1.00  0.00     0.084 C 
HETATM   46  C29 UNL     1      -2.072  11.973  14.717  1.00  0.00     0.022 C 
HETATM   47  C31 UNL     1      -0.904  10.049  13.608  1.00  0.00     0.020 C 
HETATM   48  C33 UNL     1      -4.384  10.184  15.442  1.00  0.00     0.007 C 
HETATM   49  C34 UNL     1      -5.722   9.458  15.181  1.00  0.00     0.013 C 
HETATM   50  C36 UNL     1      -5.621   7.765  13.314  1.00  0.00     0.019 C 
BRANCH  31  51
HETATM   51  O6  UNL     1      -6.786   7.415  16.921  1.00  0.00    -0.381 OA
HETATM   52  H29 UNL     1      -6.667   6.651  17.521  1.00  0.00     0.211 HD
ENDBRANCH  31  51
ENDBRANCH  29  31
ENDBRANCH  28  29
ENDBRANCH  27  28
ENDBRANCH   1  27
TORSDOF 19
ENDMDL
