MODEL 1
REMARK minimizedAffinity -8.15502548
REMARK  6 active torsions:
REMARK  status: ('A' for Active; 'I' for Inactive)
REMARK    1  A    between atoms: C2_2  and  C3_3 
REMARK    2  A    between atoms: C2_2  and  C9_10 
REMARK    3  A    between atoms: C3_3  and  C4_4 
REMARK    4  A    between atoms: C4_4  and  C5_5 
REMARK    5  A    between atoms: C17_18  and  C18_19 
REMARK    6  A    between atoms: C18_19  and  O2_22 
ROOT
HETATM    1  C9  UNL     1      -2.478   8.726  15.250  1.00  0.00    -0.002 C 
HETATM    2  C10 UNL     1      -1.542   8.043  16.300  1.00  0.00     0.006 C 
HETATM    3  C11 UNL     1      -0.378   7.392  15.519  1.00  0.00     0.011 C 
HETATM    4  C12 UNL     1      -0.859   7.375  14.059  1.00  0.00    -0.032 C 
HETATM    5  C13 UNL     1      -1.828   6.149  13.953  1.00  0.00     0.016 C 
HETATM    6  C14 UNL     1       0.259   7.303  12.977  1.00  0.00     0.003 C 
HETATM    7  C15 UNL     1       1.215   6.101  13.079  1.00  0.00     0.009 C 
HETATM    8  C16 UNL     1       1.941   5.786  11.769  1.00  0.00     0.042 C 
HETATM    9  C17 UNL     1       2.306   6.992  10.845  1.00  0.00     0.095 C 
HETATM   10  O3  UNL     1       2.632   6.327   9.603  1.00  0.00    -0.377 OA
HETATM   11  C21 UNL     1       2.824   7.098   8.428  1.00  0.00     0.169 C 
HETATM   12  C22 UNL     1       1.923   8.313   8.301  1.00  0.00     0.027 C 
HETATM   13  C23 UNL     1       0.686   8.177   9.162  1.00  0.00     0.010 C 
HETATM   14  C24 UNL     1       1.036   7.918  10.648  1.00  0.00     0.032 C 
HETATM   15  C25 UNL     1      -0.254   7.528  11.509  1.00  0.00    -0.033 C 
HETATM   16  C26 UNL     1      -0.966   6.266  10.936  1.00  0.00     0.016 C 
HETATM   17  C27 UNL     1      -1.276   8.724  11.439  1.00  0.00     0.011 C 
HETATM   18  C28 UNL     1      -2.284   8.853  12.602  1.00  0.00     0.011 C 
HETATM   19  C29 UNL     1      -1.585   8.781  13.971  1.00  0.00    -0.032 C 
HETATM   20  C30 UNL     1      -0.632  10.010  14.079  1.00  0.00     0.016 C 
ENDROOT
BRANCH   1  21
HETATM   21  C2  UNL     1      -3.259   9.952  15.813  1.00  0.00    -0.014 C 
HETATM   22  C1  UNL     1      -2.951  11.323  15.199  1.00  0.00     0.010 C 
BRANCH  21  23
HETATM   23  C3  UNL     1      -4.781   9.691  15.834  1.00  0.00     0.007 C 
BRANCH  23  24
HETATM   24  C4  UNL     1      -5.270   8.813  14.674  1.00  0.00     0.035 C 
BRANCH  24  25
HETATM   25  C5  UNL     1      -6.655   8.301  14.936  1.00  0.00     0.156 A 
HETATM   26  O1  UNL     1      -6.723   7.198  15.850  1.00  0.00    -0.370 OA
HETATM   27  C6  UNL     1      -7.140   6.927  14.503  1.00  0.00     0.080 A 
HETATM   28  C7  UNL     1      -8.615   6.701  14.366  1.00  0.00     0.048 C 
HETATM   29  C8  UNL     1      -6.250   5.976  13.767  1.00  0.00     0.048 C 
ENDBRANCH  24  25
ENDBRANCH  23  24
ENDBRANCH  21  23
ENDBRANCH   1  21
BRANCH   9  30
HETATM   30  C18 UNL     1       3.594   7.752  11.451  1.00  0.00     0.082 C 
HETATM   31  C19 UNL     1       4.655   8.042  10.367  1.00  0.00     0.049 C 
HETATM   32  C20 UNL     1       3.324   9.081  12.175  1.00  0.00     0.049 C 
BRANCH  30  33
HETATM   33  O2  UNL     1       4.219   6.921  12.445  1.00  0.00    -0.388 OA
HETATM   34  H35 UNL     1       5.092   7.299  12.655  1.00  0.00     0.210 HD
ENDBRANCH  30  33
ENDBRANCH   9  30
TORSDOF 6
ENDMDL
