MODEL 1
REMARK minimizedAffinity -7.93832731
REMARK CNNscore 0.666278064
REMARK CNNaffinity 6.69642639
REMARK  7 active torsions:
REMARK  status: ('A' for Active; 'I' for Inactive)
REMARK    1  A    between atoms: C2_2  and  C3_3 
REMARK    2  A    between atoms: C2_2  and  C9_11 
REMARK    3  A    between atoms: C3_3  and  C4_4 
REMARK    4  A    between atoms: C4_4  and  C5_5 
REMARK    5  A    between atoms: C5_5  and  O1_6 
REMARK    6  A    between atoms: C5_5  and  C6_7 
REMARK    7  A    between atoms: C6_7  and  O2_10 
ROOT
HETATM    1  C9  UNL     1       7.720  10.233  14.897  1.00  0.00    -0.001 C 
HETATM    2  C10 UNL     1       8.611  10.425  13.634  1.00  0.00     0.007 C 
HETATM    3  C11 UNL     1       7.721  10.201  12.399  1.00  0.00     0.015 C 
HETATM    4  C12 UNL     1       6.280  10.203  12.940  1.00  0.00    -0.004 C 
HETATM    5  C13 UNL     1       5.828  11.693  13.041  1.00  0.00     0.021 C 
HETATM    6  C14 UNL     1       5.182   9.503  12.165  1.00  0.00     0.007 C 
HETATM    7  C15 UNL     1       4.068   8.994  12.739  1.00  0.00     0.007 C 
HETATM    8  C16 UNL     1       3.990   9.068  14.261  1.00  0.00     0.157 C 
HETATM    9  O3  UNL     1       2.972   8.717  14.856  1.00  0.00    -0.293 OA
HETATM   10  C17 UNL     1       5.173   9.572  15.083  1.00  0.00     0.094 C 
HETATM   11  C18 UNL     1       6.489   9.468  14.314  1.00  0.00    -0.022 C 
HETATM   12  C19 UNL     1       6.851   7.956  14.167  1.00  0.00     0.017 C 
HETATM   13  C20 UNL     1       2.871   8.353  11.968  1.00  0.00    -0.007 C 
HETATM   14  C21 UNL     1       1.586   9.103  12.397  1.00  0.00     0.021 C 
HETATM   15  C22 UNL     1       2.821   6.853  12.366  1.00  0.00     0.022 C 
HETATM   16  C23 UNL     1       1.802   6.034  11.599  1.00  0.00     0.080 C 
HETATM   17  C24 UNL     1       2.086   6.123  10.122  1.00  0.00     0.135 C 
HETATM   18  O4  UNL     1       2.252   5.103   9.454  1.00  0.00    -0.297 OA
HETATM   19  C25 UNL     1       2.105   7.524   9.504  1.00  0.00     0.018 C 
HETATM   20  C26 UNL     1       0.644   8.012   9.396  1.00  0.00     0.023 C 
HETATM   21  C27 UNL     1       2.609   7.422   8.042  1.00  0.00     0.023 C 
HETATM   22  C28 UNL     1       3.023   8.478  10.384  1.00  0.00     0.021 C 
HETATM   23  C29 UNL     1       4.508   8.330  10.009  1.00  0.00     0.090 C 
HETATM   24  C30 UNL     1       5.311   9.398  10.692  1.00  0.00     0.157 C 
HETATM   25  O5  UNL     1       6.058  10.139  10.063  1.00  0.00    -0.293 OA
ENDROOT
BRANCH   1  26
HETATM   26  C2  UNL     1       8.526   9.641  16.098  1.00  0.00    -0.014 C 
HETATM   27  C1  UNL     1       9.699   8.790  15.574  1.00  0.00     0.010 C 
BRANCH  26  28
HETATM   28  C3  UNL     1       9.031  10.745  17.058  1.00  0.00     0.007 C 
BRANCH  28  29
HETATM   29  C4  UNL     1       9.796  10.252  18.296  1.00  0.00     0.035 C 
BRANCH  29  30
HETATM   30  C5  UNL     1      10.986  11.126  18.727  1.00  0.00     0.151 C 
BRANCH  30  31
HETATM   31  O1  UNL     1      11.981  10.256  19.310  1.00  0.00    -0.393 OA
HETATM   32  H10 UNL     1      12.292   9.662  18.606  1.00  0.00     0.210 HD
ENDBRANCH  30  31
BRANCH  30  33
HETATM   33  C6  UNL     1      10.706  12.248  19.771  1.00  0.00     0.076 C 
HETATM   34  C7  UNL     1      10.599  13.640  19.153  1.00  0.00     0.048 C 
HETATM   35  C8  UNL     1       9.486  11.975  20.659  1.00  0.00     0.048 C 
BRANCH  33  36
HETATM   36  O2  UNL     1      11.851  12.276  20.650  1.00  0.00    -0.388 OA
HETATM   37  H17 UNL     1      11.983  11.344  20.914  1.00  0.00     0.210 HD
ENDBRANCH  33  36
ENDBRANCH  30  33
ENDBRANCH  29  30
ENDBRANCH  28  29
ENDBRANCH  26  28
ENDBRANCH   1  26
TORSDOF 7
ENDMDL
