MODEL 1
REMARK minimizedAffinity -10.047102
REMARK  8 active torsions:
REMARK  status: ('A' for Active; 'I' for Inactive)
REMARK    1  A    between atoms: C2_2  and  C3_3 
REMARK    2  A    between atoms: C2_2  and  C27_30 
REMARK    3  A    between atoms: C3_3  and  C4_4 
REMARK    4  A    between atoms: C4_4  and  C5_5 
REMARK    5  A    between atoms: C5_5  and  C7_7 
REMARK    6  A    between atoms: C26_28  and  O3_29 
REMARK    7  A    between atoms: C27_30  and  C29_32 
REMARK    8  A    between atoms: C29_32  and  O5_34 
ROOT
HETATM    1  C7  UNL     1      -1.026  51.314 -24.957  1.00  0.00    -0.002 C 
HETATM    2  C8  UNL     1      -0.244  52.647 -25.127  1.00  0.00     0.006 C 
HETATM    3  C9  UNL     1       0.219  53.065 -23.723  1.00  0.00     0.010 C 
HETATM    4  C10 UNL     1      -0.056  51.835 -22.856  1.00  0.00     0.027 C 
HETATM    5  C11 UNL     1      -0.055  51.931 -21.348  1.00  0.00    -0.036 C 
HETATM    6  C12 UNL     1      -0.754  51.047 -20.592  1.00  0.00     0.002 C 
HETATM    7  C13 UNL     1      -1.589  49.990 -21.297  1.00  0.00     0.157 C 
HETATM    8  O1  UNL     1      -2.249  49.173 -20.658  1.00  0.00    -0.293 OA
HETATM    9  C14 UNL     1      -1.593  49.920 -22.817  1.00  0.00     0.093 C 
HETATM   10  C15 UNL     1      -1.389  51.299 -23.442  1.00  0.00    -0.026 C 
HETATM   11  C16 UNL     1      -2.603  52.200 -23.112  1.00  0.00     0.016 C 
HETATM   12  C17 UNL     1      -0.760  51.068 -19.046  1.00  0.00    -0.008 C 
HETATM   13  C18 UNL     1      -2.138  51.647 -18.623  1.00  0.00     0.021 C 
HETATM   14  C19 UNL     1      -0.593  49.642 -18.427  1.00  0.00     0.022 C 
HETATM   15  C20 UNL     1       0.143  49.579 -17.088  1.00  0.00     0.080 C 
HETATM   16  C21 UNL     1      -0.029  50.842 -16.284  1.00  0.00     0.131 C 
HETATM   17  O2  UNL     1      -0.390  50.811 -15.108  1.00  0.00    -0.298 OA
HETATM   18  C22 UNL     1       0.344  52.150 -16.967  1.00  0.00     0.056 C 
HETATM   19  C23 UNL     1       1.658  52.650 -16.367  1.00  0.00     0.018 C 
HETATM   20  C24 UNL     1       0.424  51.943 -18.499  1.00  0.00     0.012 C 
HETATM   21  C25 UNL     1       0.526  53.273 -19.259  1.00  0.00     0.042 C 
HETATM   22  C26 UNL     1       0.797  53.019 -20.741  1.00  0.00     0.148 C 
ENDROOT
BRANCH   1  23
HETATM   23  C5  UNL     1      -2.062  51.067 -26.088  1.00  0.00    -0.014 C 
HETATM   24  C6  UNL     1      -3.408  51.794 -25.947  1.00  0.00     0.010 C 
BRANCH  23  25
HETATM   25  C4  UNL     1      -2.350  49.577 -26.395  1.00  0.00     0.009 C 
BRANCH  25  26
HETATM   26  C3  UNL     1      -3.111  48.785 -25.317  1.00  0.00     0.034 C 
BRANCH  26  27
HETATM   27  C2  UNL     1      -4.570  48.408 -25.556  1.00  0.00    -0.075 C 
HETATM   28  C1  UNL     1      -5.085  48.193 -26.781  1.00  0.00     0.015 C 
BRANCH  27  29
HETATM   29  C27 UNL     1      -5.409  48.352 -24.271  1.00  0.00     0.107 C 
HETATM   30  C28 UNL     1      -4.641  48.005 -22.992  1.00  0.00     0.026 C 
BRANCH  29  31
HETATM   31  C29 UNL     1      -6.162  49.664 -24.048  1.00  0.00     0.147 C 
HETATM   32  O4  UNL     1      -5.768  50.678 -23.494  1.00  0.00    -0.650 OA
BRANCH  31  33
HETATM   33  O5  UNL     1      -7.414  49.626 -24.559  1.00  0.00    -0.776 OA
HETATM   34  H42 UNL     1      -7.782  50.509 -24.347  1.00  0.00     0.167 HD
ENDBRANCH  31  33
ENDBRANCH  29  31
ENDBRANCH  27  29
ENDBRANCH  26  27
ENDBRANCH  25  26
ENDBRANCH  23  25
ENDBRANCH   1  23
BRANCH  22  35
HETATM   35  O3  UNL     1       2.162  52.634 -20.876  1.00  0.00    -0.391 OA
HETATM   36  H37 UNL     1       2.361  52.565 -21.825  1.00  0.00     0.210 HD
ENDBRANCH  22  35
TORSDOF 8
ENDMDL
