MODEL 1
REMARK minimizedAffinity -9.64502239
REMARK  9 active torsions:
REMARK  status: ('A' for Active; 'I' for Inactive)
REMARK    1  A    between atoms: C2_2  and  C3_3 
REMARK    2  A    between atoms: C2_2  and  C9_12 
REMARK    3  A    between atoms: C3_3  and  C4_4 
REMARK    4  A    between atoms: C4_4  and  C5_5 
REMARK    5  A    between atoms: C5_5  and  O1_6 
REMARK    6  A    between atoms: C5_5  and  C6_7 
REMARK    7  A    between atoms: C6_7  and  O2_9 
REMARK    8  A    between atoms: C6_7  and  C8_10 
REMARK    9  A    between atoms: C8_10  and  O3_11 
ROOT
HETATM    1  C9  UNL     1      -2.928   8.425  15.293  1.00  0.00    -0.002 C 
HETATM    2  C10 UNL     1      -1.924   7.944  16.367  1.00  0.00     0.007 C 
HETATM    3  C11 UNL     1      -0.573   7.721  15.644  1.00  0.00     0.015 C 
HETATM    4  C12 UNL     1      -0.739   8.364  14.249  1.00  0.00    -0.005 C 
HETATM    5  C13 UNL     1      -0.429   9.884  14.415  1.00  0.00     0.021 C 
HETATM    6  C14 UNL     1       0.118   7.932  13.066  1.00  0.00    -0.000 C 
HETATM    7  C15 UNL     1      -0.354   8.012  11.792  1.00  0.00    -0.060 C 
HETATM    8  C16 UNL     1      -1.792   8.480  11.512  1.00  0.00     0.036 C 
HETATM    9  C17 UNL     1      -2.699   8.776  12.722  1.00  0.00     0.015 C 
HETATM   10  C18 UNL     1      -2.245   8.001  13.962  1.00  0.00    -0.028 C 
HETATM   11  C19 UNL     1      -2.471   6.481  13.692  1.00  0.00     0.016 C 
HETATM   12  C20 UNL     1       0.486   7.578  10.559  1.00  0.00    -0.014 C 
HETATM   13  C21 UNL     1       0.106   6.103  10.296  1.00  0.00     0.020 C 
HETATM   14  C22 UNL     1       0.153   8.430   9.306  1.00  0.00     0.021 C 
HETATM   15  C23 UNL     1       1.042   8.127   8.112  1.00  0.00     0.080 C 
HETATM   16  C24 UNL     1       2.495   8.330   8.455  1.00  0.00     0.135 C 
HETATM   17  O4  UNL     1       3.228   8.945   7.678  1.00  0.00    -0.297 OA
HETATM   18  C25 UNL     1       3.033   7.647   9.722  1.00  0.00     0.018 C 
HETATM   19  C26 UNL     1       4.356   8.358  10.110  1.00  0.00     0.023 C 
HETATM   20  C27 UNL     1       3.391   6.197   9.364  1.00  0.00     0.023 C 
HETATM   21  C28 UNL     1       1.999   7.812  10.893  1.00  0.00     0.020 C 
HETATM   22  C29 UNL     1       2.382   7.045  12.163  1.00  0.00     0.090 C 
HETATM   23  C30 UNL     1       1.513   7.452  13.329  1.00  0.00     0.157 C 
HETATM   24  O5  UNL     1       1.953   7.363  14.475  1.00  0.00    -0.293 OA
ENDROOT
BRANCH   1  25
HETATM   25  C2  UNL     1      -4.429   8.058  15.511  1.00  0.00    -0.014 C 
HETATM   26  C1  UNL     1      -5.426   8.827  14.635  1.00  0.00     0.010 C 
BRANCH  25  27
HETATM   27  C3  UNL     1      -4.614   6.534  15.287  1.00  0.00     0.007 C 
BRANCH  27  28
HETATM   28  C4  UNL     1      -5.847   5.876  15.920  1.00  0.00     0.035 C 
BRANCH  28  29
HETATM   29  C5  UNL     1      -7.145   5.762  15.106  1.00  0.00     0.154 C 
BRANCH  29  30
HETATM   30  O1  UNL     1      -8.159   5.119  15.892  1.00  0.00    -0.392 OA
HETATM   31  H10 UNL     1      -8.888   4.911  15.274  1.00  0.00     0.210 HD
ENDBRANCH  29  30
BRANCH  29  32
HETATM   32  C6  UNL     1      -7.133   5.158  13.668  1.00  0.00     0.101 C 
HETATM   33  C7  UNL     1      -8.148   5.789  12.709  1.00  0.00     0.051 C 
BRANCH  32  34
HETATM   34  O2  UNL     1      -5.838   5.512  13.105  1.00  0.00    -0.385 OA
HETATM   35  H14 UNL     1      -5.148   5.136  13.683  1.00  0.00     0.210 HD
ENDBRANCH  32  34
BRANCH  32  36
HETATM   36  C8  UNL     1      -7.243   3.619  13.654  1.00  0.00     0.204 C 
BRANCH  36  37
HETATM   37  O3  UNL     1      -8.546   3.165  13.332  1.00  0.00    -0.398 OA
HETATM   38  H17 UNL     1      -8.503   2.197  13.236  1.00  0.00     0.209 HD
ENDBRANCH  36  37
ENDBRANCH  32  36
ENDBRANCH  29  32
ENDBRANCH  28  29
ENDBRANCH  27  28
ENDBRANCH  25  27
ENDBRANCH   1  25
TORSDOF 9
ENDMDL
