MODEL 1
REMARK minimizedAffinity -7.66491604
REMARK CNNscore 0.635327399
REMARK CNNaffinity 6.42862558
REMARK  12 active torsions:
REMARK  status: ('A' for Active; 'I' for Inactive)
REMARK    1  A    between atoms: C2_2  and  C34_40 
REMARK    2  A    between atoms: C3_3  and  C4_4 
REMARK    3  A    between atoms: C4_4  and  O1_5 
REMARK    4  A    between atoms: C4_4  and  C5_6 
REMARK    5  A    between atoms: C5_6  and  C6_7 
REMARK    6  A    between atoms: C6_7  and  C8_9 
REMARK    7  A    between atoms: C10_11  and  O2_12 
REMARK    8  A    between atoms: C11_13  and  C12_14 
REMARK    9  A    between atoms: C12_14  and  C13_15 
REMARK   10  A    between atoms: C13_15  and  O3_16 
REMARK   11  A    between atoms: C33_38  and  O6_39 
REMARK   12  A    between atoms: C34_40  and  O8_42 
ROOT
HETATM    1  C8  UNL     1       4.412  56.910  -6.812  1.00  0.00     0.002 C 
HETATM    2  C9  UNL     1       5.482  55.896  -7.329  1.00  0.00     0.038 C 
HETATM    3  C10 UNL     1       4.744  54.901  -8.250  1.00  0.00     0.132 C 
HETATM    4  C11 UNL     1       3.373  55.569  -8.545  1.00  0.00     0.022 C 
HETATM    5  C14 UNL     1       2.197  54.680  -8.989  1.00  0.00    -0.029 C 
HETATM    6  C15 UNL     1       0.916  55.004  -8.661  1.00  0.00     0.003 C 
HETATM    7  C16 UNL     1       0.677  56.304  -7.898  1.00  0.00     0.157 C 
HETATM    8  O4  UNL     1      -0.437  56.828  -7.874  1.00  0.00    -0.293 OA
HETATM    9  C17 UNL     1       1.806  56.967  -7.129  1.00  0.00     0.094 C 
HETATM   10  C18 UNL     1       3.076  56.117  -7.074  1.00  0.00    -0.015 C 
HETATM   11  C19 UNL     1       2.947  55.065  -5.877  1.00  0.00     0.011 C 
HETATM   12  C20 UNL     1       2.082  53.804  -5.989  1.00  0.00     0.001 C 
HETATM   13  C21 UNL     1       0.605  54.001  -5.645  1.00  0.00     0.000 C 
HETATM   14  C22 UNL     1      -0.310  53.089  -6.461  1.00  0.00     0.001 C 
HETATM   15  C23 UNL     1      -1.071  53.773  -7.615  1.00  0.00     0.015 C 
HETATM   16  C24 UNL     1      -0.326  54.115  -8.962  1.00  0.00    -0.004 C 
HETATM   17  C25 UNL     1      -1.298  54.865  -9.927  1.00  0.00     0.022 C 
HETATM   18  C26 UNL     1      -2.622  54.136 -10.161  1.00  0.00     0.080 C 
HETATM   19  C27 UNL     1      -2.480  52.633 -10.137  1.00  0.00     0.135 C 
HETATM   20  O5  UNL     1      -3.458  51.925  -9.905  1.00  0.00    -0.297 OA
HETATM   21  C28 UNL     1      -1.113  52.056 -10.507  1.00  0.00     0.018 C 
HETATM   22  C29 UNL     1      -1.080  50.547 -10.184  1.00  0.00     0.023 C 
HETATM   23  C30 UNL     1      -1.036  52.194 -12.044  1.00  0.00     0.023 C 
HETATM   24  C31 UNL     1       0.061  52.758  -9.700  1.00  0.00     0.017 C 
HETATM   25  C32 UNL     1       1.296  52.949 -10.591  1.00  0.00     0.043 C 
HETATM   26  C33 UNL     1       2.503  53.452  -9.819  1.00  0.00     0.149 C 
ENDROOT
BRANCH   1  27
HETATM   27  C6  UNL     1       4.745  57.495  -5.401  1.00  0.00    -0.011 C 
HETATM   28  C7  UNL     1       3.708  58.538  -4.965  1.00  0.00     0.010 C 
BRANCH  27  29
HETATM   29  C5  UNL     1       6.195  58.080  -5.416  1.00  0.00     0.040 C 
BRANCH  29  30
HETATM   30  C4  UNL     1       7.180  57.472  -4.399  1.00  0.00     0.142 C 
BRANCH  30  31
HETATM   31  C3  UNL     1       8.552  58.088  -4.467  1.00  0.00     0.018 C 
HETATM   32  C2  UNL     1       9.707  57.521  -4.873  1.00  0.00     0.010 C 
HETATM   33  C1  UNL     1       9.871  56.122  -5.391  1.00  0.00     0.055 C 
BRANCH  32  34
HETATM   34  C34 UNL     1      10.984  58.283  -4.820  1.00  0.00     0.171 C 
HETATM   35  O7  UNL     1      12.069  57.825  -4.518  1.00  0.00    -0.646 OA
BRANCH  34  36
HETATM   36  O8  UNL     1      10.851  59.580  -5.144  1.00  0.00    -0.773 OA
HETATM   37  H50 UNL     1      11.760  59.931  -5.049  1.00  0.00     0.167 HD
ENDBRANCH  34  36
ENDBRANCH  32  34
ENDBRANCH  30  31
BRANCH  30  38
HETATM   38  O1  UNL     1       6.662  57.644  -3.086  1.00  0.00    -0.392 OA
HETATM   39  H6  UNL     1       7.370  57.436  -2.453  1.00  0.00     0.210 HD
ENDBRANCH  30  38
ENDBRANCH  29  30
ENDBRANCH  27  29
ENDBRANCH   1  27
BRANCH   3  40
HETATM   40  O2  UNL     1       5.507  54.576  -9.404  1.00  0.00    -0.394 OA
HETATM   41  H17 UNL     1       6.420  54.379  -9.111  1.00  0.00     0.210 HD
ENDBRANCH   3  40
BRANCH   4  42
HETATM   42  C12 UNL     1       3.434  56.682  -9.702  1.00  0.00     0.043 C 
BRANCH  42  43
HETATM   43  C13 UNL     1       3.221  56.359 -11.188  1.00  0.00     0.165 C 
BRANCH  43  44
HETATM   44  O3  UNL     1       4.421  56.021 -11.861  1.00  0.00    -0.401 OA
HETATM   45  H22 UNL     1       5.118  56.619 -11.531  1.00  0.00     0.209 HD
ENDBRANCH  43  44
ENDBRANCH  42  43
ENDBRANCH   4  42
BRANCH  26  46
HETATM   46  O6  UNL     1       3.471  53.719 -10.822  1.00  0.00    -0.391 OA
HETATM   47  H49 UNL     1       4.325  53.878 -10.375  1.00  0.00     0.210 HD
ENDBRANCH  26  46
TORSDOF 12
ENDMDL
