MODEL 1
REMARK minimizedAffinity -7.25119972
REMARK CNNscore 0.677845418
REMARK CNNaffinity 7.43237305
REMARK  20 active torsions:
REMARK  status: ('A' for Active; 'I' for Inactive)
REMARK    1  A    between atoms: C2_2  and  C18_24 
REMARK    2  A    between atoms: C3_3  and  C4_4 
REMARK    3  A    between atoms: C4_4  and  O2_6 
REMARK    4  A    between atoms: O2_6  and  C5_7 
REMARK    5  A    between atoms: C5_7  and  C6_8 
REMARK    6  A    between atoms: C6_8  and  C7_9 
REMARK    7  A    between atoms: C7_9  and  C8_10 
REMARK    8  A    between atoms: C8_10  and  C9_11 
REMARK    9  A    between atoms: C9_11  and  C10_12 
REMARK   10  A    between atoms: C10_12  and  C11_13 
REMARK   11  A    between atoms: C11_13  and  C12_14 
REMARK       I    between atoms: C12_14  and  N1_16 
REMARK   12  A    between atoms: N1_16  and  C13_17 
REMARK   13  A    between atoms: C18_24  and  C19_25 
REMARK   14  A    between atoms: C21_28  and  C22_29 
REMARK   15  A    between atoms: C22_29  and  C23_30 
REMARK   16  A    between atoms: C24_31  and  C25_32 
REMARK   17  A    between atoms: C25_32  and  C27_34 
REMARK   18  A    between atoms: C27_34  and  O6_36 
REMARK   19  A    between atoms: C29_37  and  O7_38 
REMARK   20  A    between atoms: C30_39  and  O8_40 
ROOT
HETATM    1  C1  UNL     1      -3.518   3.291  10.502  1.00  0.00     0.043 C 
HETATM    2  C2  UNL     1      -3.417   4.069  11.787  1.00  0.00    -0.075 C 
HETATM    3  C3  UNL     1      -4.397   4.149  12.711  1.00  0.00     0.084 C 
ENDROOT
BRANCH   3   4
HETATM    4  C4  UNL     1      -5.760   3.572  12.590  1.00  0.00     0.283 C 
HETATM    5  O1  UNL     1      -6.053   2.537  12.019  1.00  0.00    -0.260 OA
BRANCH   4   6
HETATM    6  O2  UNL     1      -6.617   4.418  13.218  1.00  0.00    -0.318 OA
BRANCH   6   7
HETATM    7  C5  UNL     1      -6.979   5.589  12.467  1.00  0.00     0.179 C 
BRANCH   7   8
HETATM    8  C6  UNL     1      -8.495   5.779  12.500  1.00  0.00     0.027 C 
BRANCH   8   9
HETATM    9  C7  UNL     1      -9.069   5.887  13.915  1.00  0.00     0.002 C 
BRANCH   9  10
HETATM   10  C8  UNL     1      -8.626   7.161  14.640  1.00  0.00     0.000 C 
BRANCH  10  11
HETATM   11  C9  UNL     1      -8.646   7.035  16.166  1.00  0.00     0.000 C 
BRANCH  11  12
HETATM   12  C10 UNL     1      -7.250   6.985  16.789  1.00  0.00     0.009 C 
BRANCH  12  13
HETATM   13  C11 UNL     1      -6.300   6.130  15.950  1.00  0.00     0.103 C 
BRANCH  13  14
HETATM   14  C12 UNL     1      -4.885   6.681  15.944  1.00  0.00     0.218 C 
HETATM   15  O3  UNL     1      -3.882   5.981  16.015  1.00  0.00    -0.274 OA
HETATM   16  N1  UNL     1      -4.845   8.059  15.889  1.00  0.00    -0.348 N 
HETATM   17  H19 UNL     1      -5.676   8.537  15.559  1.00  0.00     0.163 HD
BRANCH  16  18
HETATM   18  C13 UNL     1      -3.573   8.766  15.739  1.00  0.00     0.176 C 
HETATM   19  C14 UNL     1      -3.014   9.248  17.081  1.00  0.00     0.036 C 
HETATM   20  C15 UNL     1      -3.752  10.486  17.580  1.00  0.00     0.022 C 
HETATM   21  C16 UNL     1      -3.625  11.592  16.547  1.00  0.00     0.122 C 
HETATM   22  N2  UNL     1      -4.038  11.162  15.233  1.00  0.00    -0.359 N 
HETATM   23  C17 UNL     1      -3.797   9.909  14.734  1.00  0.00     0.240 C 
HETATM   24  H27 UNL     1      -4.153  11.863  14.510  1.00  0.00     0.162 HD
HETATM   25  O4  UNL     1      -3.929   9.705  13.525  1.00  0.00    -0.271 OA
ENDBRANCH  16  18
ENDBRANCH  13  14
ENDBRANCH  12  13
ENDBRANCH  11  12
ENDBRANCH  10  11
ENDBRANCH   9  10
ENDBRANCH   8   9
ENDBRANCH   7   8
ENDBRANCH   6   7
ENDBRANCH   4   6
ENDBRANCH   3   4
BRANCH   2  26
HETATM   26  C18 UNL     1      -2.094   4.781  12.023  1.00  0.00     0.068 C 
BRANCH  26  27
HETATM   27  C19 UNL     1      -2.048   5.529  13.371  1.00  0.00     0.156 C 
HETATM   28  O5  UNL     1      -2.283   6.943  13.259  1.00  0.00    -0.382 OA
HETATM   29  C20 UNL     1      -1.250   7.684  12.613  1.00  0.00     0.175 C 
HETATM   30  C21 UNL     1       0.083   7.575  13.359  1.00  0.00     0.044 C 
HETATM   31  C29 UNL     1       0.435   6.085  13.521  1.00  0.00     0.155 C 
HETATM   32  C30 UNL     1      -0.735   5.297  14.133  1.00  0.00     0.176 C 
BRANCH  30  33
HETATM   33  C22 UNL     1       1.164   8.381  12.607  1.00  0.00     0.036 C 
BRANCH  33  34
HETATM   34  C23 UNL     1       0.955   8.424  11.118  1.00  0.00    -0.030 C 
HETATM   35  C24 UNL     1       1.253   7.403  10.296  1.00  0.00    -0.024 C 
BRANCH  35  36
HETATM   36  C25 UNL     1       1.074   7.338   8.789  1.00  0.00     0.032 C 
HETATM   37  C26 UNL     1       0.057   8.406   8.353  1.00  0.00     0.017 C 
BRANCH  36  38
HETATM   38  C27 UNL     1       2.361   7.386   7.921  1.00  0.00     0.121 C 
HETATM   39  C28 UNL     1       3.124   8.707   7.980  1.00  0.00     0.040 C 
BRANCH  38  40
HETATM   40  O6  UNL     1       2.024   7.155   6.547  1.00  0.00    -0.395 OA
HETATM   41  H46 UNL     1       1.653   6.258   6.489  1.00  0.00     0.210 HD
ENDBRANCH  38  40
ENDBRANCH  36  38
ENDBRANCH  35  36
ENDBRANCH  33  34
ENDBRANCH  30  33
BRANCH  31  42
HETATM   42  O7  UNL     1       1.574   5.924  14.369  1.00  0.00    -0.392 OA
HETATM   43  H48 UNL     1       1.227   5.937  15.287  1.00  0.00     0.210 HD
ENDBRANCH  31  42
BRANCH  32  44
HETATM   44  O8  UNL     1      -0.887   5.739  15.499  1.00  0.00    -0.390 OA
HETATM   45  H50 UNL     1      -1.490   6.510  15.476  1.00  0.00     0.210 HD
ENDBRANCH  32  44
ENDBRANCH  26  27
ENDBRANCH   2  26
TORSDOF 20
ENDMDL
