MODEL 1
REMARK minimizedAffinity -9.83791924
REMARK CNNscore 0.691780508
REMARK CNNaffinity 7.4504528
REMARK  10 active torsions:
REMARK  status: ('A' for Active; 'I' for Inactive)
REMARK    1  A    between atoms: O1_2  and  C2_3 
REMARK    2  A    between atoms: C4_5  and  O2_6 
REMARK    3  A    between atoms: O2_6  and  C5_7 
REMARK    4  A    between atoms: C19_21  and  C20_22 
REMARK    5  A    between atoms: C24_28  and  O5_29 
REMARK    6  A    between atoms: O5_29  and  C25_30 
REMARK    7  A    between atoms: C25_30  and  C26_32 
REMARK    8  A    between atoms: C26_32  and  C27_33 
REMARK    9  A    between atoms: C31_37  and  O7_38 
REMARK   10  A    between atoms: C35_43  and  O9_44 
ROOT
HETATM    1  C5  UNL     1      -1.776  49.464 -15.624  1.00  0.00     0.125 C 
HETATM    2  C6  UNL     1      -0.677  49.247 -16.643  1.00  0.00     0.033 C 
HETATM    3  C7  UNL     1      -1.197  48.492 -17.861  1.00  0.00     0.012 C 
HETATM    4  C8  UNL     1      -2.621  48.906 -18.367  1.00  0.00    -0.036 C 
HETATM    5  C9  UNL     1      -3.634  47.806 -17.932  1.00  0.00     0.016 C 
HETATM    6  C10 UNL     1      -3.130  50.232 -17.717  1.00  0.00    -0.004 C 
HETATM    7  C11 UNL     1      -2.588  51.441 -18.476  1.00  0.00     0.006 C 
HETATM    8  C12 UNL     1      -3.174  51.507 -19.884  1.00  0.00     0.008 C 
HETATM    9  C13 UNL     1      -3.475  50.128 -20.527  1.00  0.00     0.026 C 
HETATM   10  C14 UNL     1      -2.540  49.043 -19.953  1.00  0.00     0.001 C 
HETATM   11  C15 UNL     1      -2.751  47.699 -20.667  1.00  0.00     0.007 C 
HETATM   12  C16 UNL     1      -2.546  47.828 -22.164  1.00  0.00     0.013 C 
HETATM   13  C17 UNL     1      -3.519  48.830 -22.838  1.00  0.00    -0.003 C 
HETATM   14  C18 UNL     1      -4.946  48.251 -22.839  1.00  0.00     0.019 C 
HETATM   15  C19 UNL     1      -2.913  49.142 -24.276  1.00  0.00     0.058 C 
HETATM   16  C24 UNL     1      -2.572  50.651 -24.241  1.00  0.00     0.144 C 
HETATM   17  C30 UNL     1      -2.344  50.944 -22.757  1.00  0.00     0.072 C 
HETATM   18  C31 UNL     1      -3.503  50.212 -22.088  1.00  0.00     0.072 C 
HETATM   19  C32 UNL     1      -2.881  50.352 -16.198  1.00  0.00     0.037 C 
ENDROOT
BRANCH   1  20
HETATM   20  O2  UNL     1      -1.213  50.126 -14.486  1.00  0.00    -0.356 OA
BRANCH  20  21
HETATM   21  C4  UNL     1      -2.192  50.736 -13.646  1.00  0.00     0.263 C 
HETATM   22  C3  UNL     1      -2.517  49.746 -12.531  1.00  0.00     0.095 C 
HETATM   23  C2  UNL     1      -3.508  50.329 -11.518  1.00  0.00     0.156 C 
HETATM   24  C35 UNL     1      -3.841  51.799 -11.824  1.00  0.00     0.175 C 
HETATM   25  C33 UNL     1      -2.567  52.596 -12.166  1.00  0.00     0.151 C 
HETATM   26  O8  UNL     1      -1.688  51.942 -13.085  1.00  0.00    -0.354 OA
HETATM   27  C34 UNL     1      -1.723  52.944 -10.939  1.00  0.00     0.042 C 
BRANCH  23  28
HETATM   28  O1  UNL     1      -4.738  49.580 -11.574  1.00  0.00    -0.388 OA
HETATM   29  C1  UNL     1      -4.620  48.290 -10.986  1.00  0.00     0.202 C 
ENDBRANCH  23  28
BRANCH  24  30
HETATM   30  O9  UNL     1      -4.541  52.388 -10.724  1.00  0.00    -0.390 OA
HETATM   31  H54 UNL     1      -5.202  52.999 -11.095  1.00  0.00     0.210 HD
ENDBRANCH  24  30
ENDBRANCH  20  21
ENDBRANCH   1  20
BRANCH  18  32
HETATM   32  O7  UNL     1      -4.692  50.942 -22.446  1.00  0.00    -0.389 OA
HETATM   33  H46 UNL     1      -4.647  51.832 -22.050  1.00  0.00     0.210 HD
ENDBRANCH  18  32
BRANCH  15  34
HETATM   34  C20 UNL     1      -3.605  48.665 -25.534  1.00  0.00    -0.043 A 
HETATM   35  C21 UNL     1      -3.098  48.591 -26.766  1.00  0.00     0.087 A 
HETATM   36  C22 UNL     1      -4.181  48.184 -27.664  1.00  0.00     0.283 A 
HETATM   37  O3  UNL     1      -4.061  48.011 -28.862  1.00  0.00    -0.260 OA
HETATM   38  O4  UNL     1      -5.330  48.055 -26.947  1.00  0.00    -0.314 OA
HETATM   39  C23 UNL     1      -5.059  48.345 -25.576  1.00  0.00     0.214 A 
ENDBRANCH  15  34
BRANCH  16  40
HETATM   40  O5  UNL     1      -1.373  50.901 -24.994  1.00  0.00    -0.315 OA
BRANCH  40  41
HETATM   41  C25 UNL     1      -1.428  51.962 -25.846  1.00  0.00     0.259 C 
HETATM   42  O6  UNL     1      -2.025  53.009 -25.635  1.00  0.00    -0.265 OA
BRANCH  41  43
HETATM   43  C26 UNL     1      -0.636  51.679 -27.099  1.00  0.00     0.115 C 
BRANCH  43  44
HETATM   44  C27 UNL     1       0.774  52.291 -27.107  1.00  0.00    -0.013 C 
HETATM   45  C28 UNL     1       1.655  51.723 -28.223  1.00  0.00     0.010 C 
HETATM   46  C29 UNL     1       1.470  52.152 -25.749  1.00  0.00     0.010 C 
ENDBRANCH  43  44
ENDBRANCH  41  43
ENDBRANCH  40  41
ENDBRANCH  16  40
TORSDOF 10
ENDMDL
