MODEL 1
REMARK minimizedAffinity -8.96869373
REMARK CNNscore 0.765515566
REMARK CNNaffinity 7.42526007
REMARK  12 active torsions:
REMARK  status: ('A' for Active; 'I' for Inactive)
REMARK    1  A    between atoms: O1_2  and  C2_3 
REMARK    2  A    between atoms: C4_5  and  O2_6 
REMARK    3  A    between atoms: O2_6  and  C5_7 
REMARK    4  A    between atoms: C8_10  and  C9_11 
REMARK    5  A    between atoms: N1_12  and  C10_14 
REMARK    6  A    between atoms: C10_14  and  C11_15 
REMARK    7  A    between atoms: C11_15  and  C12_16 
REMARK    8  A    between atoms: C12_16  and  O3_17 
REMARK    9  A    between atoms: C18_23  and  C19_24 
REMARK   10  A    between atoms: C25_32  and  O6_33 
REMARK   11  A    between atoms: C29_37  and  O7_38 
REMARK   12  A    between atoms: C33_43  and  O9_44 
ROOT
HETATM    1  C5  UNL     1      -4.296   7.164  13.783  1.00  0.00     0.127 C 
HETATM    2  C6  UNL     1      -3.880   8.433  13.049  1.00  0.00     0.033 C 
HETATM    3  C7  UNL     1      -3.156   9.409  13.960  1.00  0.00     0.021 C 
HETATM    4  C8  UNL     1      -1.899   8.793  14.655  1.00  0.00     0.026 C 
HETATM    5  C13 UNL     1      -0.794   8.372  13.623  1.00  0.00     0.009 C 
HETATM    6  C14 UNL     1      -0.323   9.518  12.722  1.00  0.00     0.007 C 
HETATM    7  C15 UNL     1       0.516   8.950  11.588  1.00  0.00     0.013 C 
HETATM    8  C16 UNL     1       1.809   8.253  12.065  1.00  0.00    -0.005 C 
HETATM    9  C17 UNL     1       2.815   9.357  12.472  1.00  0.00     0.019 C 
HETATM   10  C18 UNL     1       2.463   7.346  10.935  1.00  0.00     0.028 C 
HETATM   11  C23 UNL     1       2.385   5.900  11.469  1.00  0.00     0.013 C 
HETATM   12  C24 UNL     1       1.280   5.927  12.515  1.00  0.00     0.040 C 
HETATM   13  C25 UNL     1       1.537   7.254  13.246  1.00  0.00     0.070 C 
HETATM   14  C26 UNL     1       0.430   7.676  14.270  1.00  0.00     0.026 C 
HETATM   15  C27 UNL     1      -0.029   6.490  15.152  1.00  0.00     0.011 C 
HETATM   16  C28 UNL     1      -1.177   6.807  16.113  1.00  0.00     0.039 C 
HETATM   17  C29 UNL     1      -2.358   7.534  15.450  1.00  0.00     0.073 C 
HETATM   18  C30 UNL     1      -3.131   6.535  14.549  1.00  0.00     0.071 C 
ENDROOT
BRANCH   1  19
HETATM   19  O2  UNL     1      -4.722   6.248  12.771  1.00  0.00    -0.356 OA
BRANCH  19  20
HETATM   20  C4  UNL     1      -3.998   5.020  12.765  1.00  0.00     0.263 C 
HETATM   21  C3  UNL     1      -4.926   3.965  12.175  1.00  0.00     0.095 C 
HETATM   22  C2  UNL     1      -4.228   2.612  12.128  1.00  0.00     0.156 C 
HETATM   23  C33 UNL     1      -2.888   2.746  11.380  1.00  0.00     0.175 C 
HETATM   24  C31 UNL     1      -2.057   3.909  11.961  1.00  0.00     0.151 C 
HETATM   25  O8  UNL     1      -2.806   5.130  12.000  1.00  0.00    -0.354 OA
HETATM   26  C32 UNL     1      -0.801   4.180  11.140  1.00  0.00     0.042 C 
BRANCH  22  27
HETATM   27  O1  UNL     1      -5.007   1.619  11.435  1.00  0.00    -0.388 OA
HETATM   28  C1  UNL     1      -6.399   1.697  11.703  1.00  0.00     0.202 C 
ENDBRANCH  22  27
BRANCH  23  29
HETATM   29  O9  UNL     1      -3.157   2.949   9.985  1.00  0.00    -0.390 OA
HETATM   30  H51 UNL     1      -3.902   2.348   9.777  1.00  0.00     0.210 HD
ENDBRANCH  23  29
ENDBRANCH  19  20
ENDBRANCH   1  19
BRANCH  17  31
HETATM   31  O7  UNL     1      -3.275   7.940  16.479  1.00  0.00    -0.389 OA
HETATM   32  H43 UNL     1      -3.453   7.163  17.039  1.00  0.00     0.210 HD
ENDBRANCH  17  31
BRANCH   4  33
HETATM   33  C9  UNL     1      -1.389   9.917  15.580  1.00  0.00     0.068 C 
HETATM   34  N1  UNL     1      -0.907   9.700  16.760  1.00  0.00    -0.401 N 
ATOM     35  H1  UNL     1      -0.861   8.768  17.172  1.00  0.00     0.158 HD
BRANCH  34  36
HETATM   36  C10 UNL     1      -0.433  10.901  17.462  1.00  0.00     0.121 C 
BRANCH  36  37
HETATM   37  C11 UNL     1      -0.835  10.810  18.938  1.00  0.00     0.045 C 
BRANCH  37  38
HETATM   38  C12 UNL     1       0.268  11.273  19.886  1.00  0.00     0.165 C 
BRANCH  38  39
HETATM   39  O3  UNL     1       1.309  10.307  19.969  1.00  0.00    -0.401 OA
HETATM   40  H20 UNL     1       0.857   9.435  19.973  1.00  0.00     0.209 HD
ENDBRANCH  38  39
ENDBRANCH  37  38
ENDBRANCH  36  37
ENDBRANCH  34  36
ENDBRANCH   4  33
BRANCH  13  41
HETATM   41  O6  UNL     1       2.776   7.078  13.964  1.00  0.00    -0.389 OA
HETATM   42  H37 UNL     1       2.586   6.751  14.862  1.00  0.00     0.210 HD
ENDBRANCH  13  41
BRANCH  10  43
HETATM   43  C19 UNL     1       1.924   7.484   9.531  1.00  0.00    -0.045 A 
HETATM   44  C20 UNL     1       2.587   7.216   8.403  1.00  0.00     0.087 A 
HETATM   45  C21 UNL     1       1.678   7.480   7.287  1.00  0.00     0.283 A 
HETATM   46  O4  UNL     1       1.953   7.327   6.110  1.00  0.00    -0.260 OA
HETATM   47  O5  UNL     1       0.485   7.926   7.775  1.00  0.00    -0.314 OA
HETATM   48  C22 UNL     1       0.533   7.904   9.203  1.00  0.00     0.213 A 
ENDBRANCH  10  43
TORSDOF 12
ENDMDL
