MODEL 1
REMARK minimizedAffinity -9.13260078
REMARK  4 active torsions:
REMARK  status: ('A' for Active; 'I' for Inactive)
REMARK    1  A    between atoms: C4_4  and  C5_5 
REMARK    2  A    between atoms: C5_5  and  C6_6 
REMARK    3  A    between atoms: C6_6  and  C7_7 
REMARK    4  A    between atoms: C7_7  and  C9_9 
ROOT
HETATM    1  C9  UNL     1      -3.503   7.162  14.424  1.00  0.00    -0.002 C 
HETATM    2  C10 UNL     1      -4.229   8.077  13.384  1.00  0.00     0.007 C 
HETATM    3  C11 UNL     1      -3.153   8.681  12.461  1.00  0.00     0.015 C 
HETATM    4  C12 UNL     1      -1.827   8.420  13.202  1.00  0.00    -0.013 C 
HETATM    5  C13 UNL     1      -1.712   9.555  14.268  1.00  0.00     0.021 C 
HETATM    6  C14 UNL     1      -0.510   8.385  12.428  1.00  0.00    -0.070 C 
HETATM    7  C15 UNL     1      -0.414   8.588  11.102  1.00  0.00    -0.022 C 
HETATM    8  C16 UNL     1       0.839   8.375  10.303  1.00  0.00     0.034 C 
HETATM    9  C17 UNL     1       1.900   7.549  11.064  1.00  0.00     0.013 C 
HETATM   10  C18 UNL     1       3.241   7.273  10.278  1.00  0.00     0.018 C 
HETATM   11  C19 UNL     1       3.279   7.933   8.883  1.00  0.00     0.023 C 
HETATM   12  C20 UNL     1       3.403   5.751  10.061  1.00  0.00     0.023 C 
HETATM   13  C21 UNL     1       4.491   7.722  11.052  1.00  0.00     0.135 C 
HETATM   14  O1  UNL     1       5.472   8.208  10.482  1.00  0.00    -0.297 OA
HETATM   15  C22 UNL     1       4.561   7.479  12.543  1.00  0.00     0.080 C 
HETATM   16  C23 UNL     1       3.200   7.314  13.199  1.00  0.00     0.017 C 
HETATM   17  C24 UNL     1       2.080   8.118  12.508  1.00  0.00    -0.031 C 
HETATM   18  C25 UNL     1       2.471   9.627  12.488  1.00  0.00     0.016 C 
HETATM   19  C26 UNL     1       0.708   8.008  13.289  1.00  0.00     0.024 C 
HETATM   20  C27 UNL     1       0.442   6.660  14.003  1.00  0.00     0.010 C 
HETATM   21  C28 UNL     1      -0.931   6.587  14.713  1.00  0.00     0.011 C 
HETATM   22  C29 UNL     1      -2.096   6.971  13.774  1.00  0.00    -0.029 C 
HETATM   23  C30 UNL     1      -2.191   5.881  12.659  1.00  0.00     0.016 C 
ENDROOT
BRANCH   1  24
HETATM   24  C7  UNL     1      -4.375   5.927  14.807  1.00  0.00    -0.014 C 
HETATM   25  C8  UNL     1      -5.748   6.330  15.353  1.00  0.00     0.010 C 
BRANCH  24  26
HETATM   26  C6  UNL     1      -4.543   4.998  13.569  1.00  0.00     0.008 C 
BRANCH  26  27
HETATM   27  C5  UNL     1      -5.973   4.789  13.053  1.00  0.00     0.028 C 
BRANCH  27  28
HETATM   28  C4  UNL     1      -6.249   3.380  12.607  1.00  0.00    -0.025 C 
HETATM   29  C2  UNL     1      -5.707   2.732  11.557  1.00  0.00    -0.091 C 
HETATM   30  C1  UNL     1      -6.130   1.327  11.218  1.00  0.00     0.042 C 
HETATM   31  C3  UNL     1      -4.655   3.301  10.645  1.00  0.00     0.042 C 
ENDBRANCH  27  28
ENDBRANCH  26  27
ENDBRANCH  24  26
ENDBRANCH   1  24
TORSDOF 4
ENDMDL
