MODEL 1
REMARK minimizedAffinity -7.57603645
REMARK  9 active torsions:
REMARK  status: ('A' for Active; 'I' for Inactive)
REMARK    1  A    between atoms: O1_2  and  C2_3 
REMARK    2  A    between atoms: C2_3  and  C3_4 
REMARK    3  A    between atoms: C3_4  and  N1_5 
REMARK       I    between atoms: N1_5  and  C4_6 
REMARK    4  A    between atoms: C4_6  and  C5_8 
REMARK    5  A    between atoms: C5_8  and  C7_10 
REMARK    6  A    between atoms: C14_17  and  N2_18 
REMARK       I    between atoms: N2_18  and  C15_19 
REMARK    7  A    between atoms: C15_19  and  C16_21 
REMARK    8  A    between atoms: C16_21  and  O4_22 
REMARK    9  A    between atoms: C21_27  and  O5_28 
ROOT
HETATM    1  C7  UNL     1      -2.510  49.972 -25.264  1.00  0.00     0.027 C 
HETATM    2  C8  UNL     1      -3.390  48.900 -24.608  1.00  0.00     0.009 C 
HETATM    3  C9  UNL     1      -2.737  48.307 -23.366  1.00  0.00     0.010 C 
HETATM    4  C10 UNL     1      -2.355  49.371 -22.313  1.00  0.00    -0.037 C 
HETATM    5  C11 UNL     1      -3.652  50.012 -21.758  1.00  0.00     0.015 C 
HETATM    6  C12 UNL     1      -1.613  48.650 -21.164  1.00  0.00     0.011 C 
HETATM    7  C13 UNL     1      -1.081  49.603 -20.107  1.00  0.00     0.026 C 
HETATM    8  C14 UNL     1      -0.205  50.709 -20.704  1.00  0.00     0.088 C 
HETATM    9  C18 UNL     1      -0.887  51.450 -21.891  1.00  0.00     0.012 C 
HETATM   10  C19 UNL     1       0.087  52.497 -22.456  1.00  0.00     0.012 C 
HETATM   11  C20 UNL     1      -1.396  50.418 -22.962  1.00  0.00     0.028 C 
HETATM   12  C21 UNL     1      -2.026  51.040 -24.244  1.00  0.00     0.128 C 
ENDROOT
BRANCH   1  13
HETATM   13  C5  UNL     1      -3.158  50.613 -26.530  1.00  0.00     0.080 C 
HETATM   14  C6  UNL     1      -3.585  49.621 -27.615  1.00  0.00     0.020 C 
BRANCH  13  15
HETATM   15  C4  UNL     1      -2.306  51.757 -27.086  1.00  0.00     0.222 C 
HETATM   16  N1  UNL     1      -1.205  51.394 -27.825  1.00  0.00    -0.359 N 
HETATM   17  H8  UNL     1      -0.930  50.422 -27.866  1.00  0.00     0.162 HD
HETATM   18  O2  UNL     1      -2.585  52.931 -26.852  1.00  0.00    -0.273 OA
BRANCH  16  19
HETATM   19  C3  UNL     1      -0.245  52.377 -28.295  1.00  0.00     0.148 C 
BRANCH  19  20
HETATM   20  C2  UNL     1       1.211  51.998 -28.023  1.00  0.00     0.186 C 
BRANCH  20  21
HETATM   21  O1  UNL     1       1.438  52.020 -26.611  1.00  0.00    -0.394 OA
HETATM   22  C1  UNL     1       2.564  51.231 -26.253  1.00  0.00     0.201 C 
ENDBRANCH  20  21
ENDBRANCH  19  20
ENDBRANCH  16  19
ENDBRANCH  13  15
ENDBRANCH   1  13
BRANCH  12  23
HETATM   23  O5  UNL     1      -1.042  51.831 -24.908  1.00  0.00    -0.395 OA
HETATM   24  H38 UNL     1      -1.493  52.518 -25.425  1.00  0.00     0.210 HD
ENDBRANCH  12  23
BRANCH   8  25
HETATM   25  N2  UNL     1       0.160  51.642 -19.645  1.00  0.00    -0.354 N 
HETATM   26  C15 UNL     1       0.266  51.273 -18.321  1.00  0.00     0.241 C 
HETATM   27  O3  UNL     1       0.171  50.118 -17.919  1.00  0.00    -0.271 OA
HETATM   28  H26 UNL     1       0.087  52.644 -19.804  1.00  0.00     0.162 HD
BRANCH  26  29
HETATM   29  C16 UNL     1       0.538  52.451 -17.381  1.00  0.00     0.269 C 
BRANCH  29  30
HETATM   30  O4  UNL     1       1.474  52.109 -16.355  1.00  0.00    -0.387 OA
HETATM   31  C17 UNL     1       2.760  52.646 -16.634  1.00  0.00     0.202 C 
ENDBRANCH  29  30
ENDBRANCH  26  29
ENDBRANCH   8  25
TORSDOF 9
ENDMDL
