MODEL 1
REMARK minimizedAffinity -7.940238
REMARK CNNscore 0.624948978
REMARK CNNaffinity 6.23390961
REMARK  7 active torsions:
REMARK  status: ('A' for Active; 'I' for Inactive)
REMARK    1  A    between atoms: C2_2  and  C30_33 
REMARK    2  A    between atoms: C3_3  and  C4_4 
REMARK    3  A    between atoms: C4_4  and  C5_5 
REMARK    4  A    between atoms: C5_5  and  C6_6 
REMARK    5  A    between atoms: C6_6  and  C8_8 
REMARK    6  A    between atoms: C19_20  and  O2_21 
REMARK    7  A    between atoms: C30_33  and  O5_35 
ROOT
HETATM    1  C8  UNL     1       5.841  12.684  22.067  1.00  0.00    -0.002 C 
HETATM    2  C9  UNL     1       5.751  11.431  22.979  1.00  0.00     0.007 C 
HETATM    3  C10 UNL     1       4.606  10.556  22.413  1.00  0.00     0.018 C 
HETATM    4  C11 UNL     1       3.889  11.461  21.393  1.00  0.00     0.025 C 
HETATM    5  C12 UNL     1       2.864  12.283  22.207  1.00  0.00     0.024 C 
HETATM    6  C13 UNL     1       3.139  10.766  20.255  1.00  0.00     0.147 C 
HETATM    7  O1  UNL     1       2.881   9.562  20.342  1.00  0.00    -0.296 OA
HETATM    8  C14 UNL     1       2.697  11.613  18.998  1.00  0.00     0.055 C 
HETATM    9  C15 UNL     1       3.749  12.759  18.712  1.00  0.00     0.021 C 
HETATM   10  C16 UNL     1       4.547  13.341  19.892  1.00  0.00     0.012 C 
HETATM   11  C17 UNL     1       5.098  12.224  20.781  1.00  0.00    -0.026 C 
HETATM   12  C18 UNL     1       6.029  11.312  19.927  1.00  0.00     0.016 C 
HETATM   13  C19 UNL     1       2.747  10.678  17.731  1.00  0.00     0.135 C 
HETATM   14  C20 UNL     1       1.850  11.396  16.727  1.00  0.00     0.039 C 
HETATM   15  C21 UNL     1       0.582  11.661  17.555  1.00  0.00     0.012 C 
HETATM   16  C22 UNL     1      -0.493  12.559  16.878  1.00  0.00     0.018 C 
HETATM   17  C23 UNL     1      -0.694  12.140  15.406  1.00  0.00     0.023 C 
HETATM   18  C24 UNL     1      -1.858  12.437  17.583  1.00  0.00     0.023 C 
HETATM   19  C25 UNL     1      -0.115  14.033  16.922  1.00  0.00     0.135 C 
HETATM   20  O3  UNL     1      -0.570  14.847  16.114  1.00  0.00    -0.297 OA
HETATM   21  C26 UNL     1       0.846  14.499  17.982  1.00  0.00     0.080 C 
HETATM   22  C27 UNL     1       0.890  13.603  19.217  1.00  0.00     0.018 C 
HETATM   23  C28 UNL     1       1.135  12.088  18.973  1.00  0.00    -0.022 C 
HETATM   24  C29 UNL     1       0.304  11.306  20.027  1.00  0.00     0.017 C 
ENDROOT
BRANCH  13  25
HETATM   25  O2  UNL     1       2.172   9.384  17.911  1.00  0.00    -0.394 OA
HETATM   26  H29 UNL     1       2.485   9.023  18.769  1.00  0.00     0.210 HD
ENDBRANCH  13  25
BRANCH   1  27
HETATM   27  C6  UNL     1       7.237  13.361  21.926  1.00  0.00    -0.014 C 
HETATM   28  C7  UNL     1       8.025  13.144  23.233  1.00  0.00     0.010 C 
BRANCH  27  29
HETATM   29  C5  UNL     1       8.093  12.886  20.730  1.00  0.00     0.008 C 
BRANCH  29  30
HETATM   30  C4  UNL     1       9.603  13.003  20.977  1.00  0.00     0.028 C 
BRANCH  30  31
HETATM   31  C3  UNL     1      10.342  13.297  19.698  1.00  0.00    -0.013 C 
HETATM   32  C2  UNL     1      11.535  12.817  19.294  1.00  0.00     0.008 C 
HETATM   33  C1  UNL     1      12.140  13.242  17.986  1.00  0.00     0.055 C 
BRANCH  32  34
HETATM   34  C30 UNL     1      12.291  11.815  20.088  1.00  0.00     0.171 C 
HETATM   35  O4  UNL     1      13.207  12.019  20.863  1.00  0.00    -0.646 OA
BRANCH  34  36
HETATM   36  O5  UNL     1      11.837  10.567  19.878  1.00  0.00    -0.773 OA
HETATM   37  H46 UNL     1      12.409  10.019  20.454  1.00  0.00     0.167 HD
ENDBRANCH  34  36
ENDBRANCH  32  34
ENDBRANCH  30  31
ENDBRANCH  29  30
ENDBRANCH  27  29
ENDBRANCH   1  27
TORSDOF 7
ENDMDL
