MODEL 1
REMARK minimizedAffinity -9.36217308
REMARK  8 active torsions:
REMARK  status: ('A' for Active; 'I' for Inactive)
REMARK    1  A    between atoms: C12_14  and  C13_15 
REMARK    2  A    between atoms: C13_15  and  C15_17 
REMARK    3  A    between atoms: C15_17  and  C16_18 
REMARK    4  A    between atoms: C16_18  and  C17_19 
REMARK    5  A    between atoms: C26_28  and  C27_29 
REMARK    6  A    between atoms: C27_29  and  C28_30 
REMARK    7  A    between atoms: C28_30  and  C29_31 
REMARK    8  A    between atoms: C29_31  and  O4_33 
ROOT
HETATM    1  C1  UNL     1      -2.984  51.129 -28.169  1.00  0.00     0.025 C 
HETATM    2  C2  UNL     1      -2.997  50.052 -27.376  1.00  0.00     0.015 C 
HETATM    3  C3  UNL     1      -3.846  48.879 -27.698  1.00  0.00     0.289 C 
HETATM    4  O1  UNL     1      -4.432  48.670 -28.744  1.00  0.00    -0.260 OA
HETATM    5  O2  UNL     1      -3.841  48.056 -26.616  1.00  0.00    -0.311 OA
HETATM    6  C4  UNL     1      -3.202  48.707 -25.502  1.00  0.00     0.142 C 
HETATM    7  C5  UNL     1      -4.286  49.260 -24.584  1.00  0.00     0.039 C 
HETATM    8  C6  UNL     1      -3.793  50.123 -23.413  1.00  0.00     0.006 C 
HETATM    9  C7  UNL     1      -2.667  51.114 -23.800  1.00  0.00    -0.027 A 
HETATM   10  C8  UNL     1      -2.130  51.940 -22.612  1.00  0.00     0.011 C 
HETATM   11  C9  UNL     1      -1.884  51.152 -21.318  1.00  0.00     0.011 C 
HETATM   12  C10 UNL     1      -3.120  50.329 -20.928  1.00  0.00    -0.032 C 
HETATM   13  C11 UNL     1      -4.306  51.300 -20.625  1.00  0.00     0.016 C 
HETATM   14  C12 UNL     1      -2.978  49.346 -19.720  1.00  0.00    -0.002 C 
HETATM   15  C21 UNL     1      -4.067  48.274 -20.038  1.00  0.00     0.006 C 
HETATM   16  C22 UNL     1      -4.485  48.444 -21.511  1.00  0.00     0.011 C 
HETATM   17  C23 UNL     1      -3.390  49.329 -22.126  1.00  0.00    -0.032 C 
HETATM   18  C24 UNL     1      -2.182  48.390 -22.439  1.00  0.00     0.016 C 
HETATM   19  C25 UNL     1      -2.870  52.014 -24.997  1.00  0.00     0.022 A 
HETATM   20  C26 UNL     1      -1.877  50.879 -25.136  1.00  0.00    -0.021 A 
HETATM   21  C31 UNL     1      -2.274  49.751 -26.101  1.00  0.00     0.063 C 
ENDROOT
BRANCH  14  22
HETATM   22  C13 UNL     1      -3.087  49.873 -18.253  1.00  0.00    -0.014 C 
HETATM   23  C14 UNL     1      -2.751  51.363 -18.148  1.00  0.00     0.010 C 
BRANCH  22  24
HETATM   24  C15 UNL     1      -2.152  49.047 -17.323  1.00  0.00     0.008 C 
BRANCH  24  25
HETATM   25  C16 UNL     1      -0.651  49.079 -17.648  1.00  0.00     0.028 C 
BRANCH  25  26
HETATM   26  C17 UNL     1       0.197  49.648 -16.544  1.00  0.00    -0.025 C 
HETATM   27  C18 UNL     1       0.794  50.856 -16.509  1.00  0.00    -0.091 C 
HETATM   28  C19 UNL     1       0.749  51.867 -17.622  1.00  0.00     0.042 C 
HETATM   29  C20 UNL     1       1.599  51.282 -15.308  1.00  0.00     0.042 C 
ENDBRANCH  25  26
ENDBRANCH  24  25
ENDBRANCH  22  24
ENDBRANCH  14  22
BRANCH  20  30
HETATM   30  C27 UNL     1      -0.363  51.121 -25.104  1.00  0.00     0.021 C 
BRANCH  30  31
HETATM   31  C28 UNL     1       0.324  51.089 -26.465  1.00  0.00     0.112 C 
BRANCH  31  32
HETATM   32  C29 UNL     1       1.286  52.234 -26.651  1.00  0.00     0.258 C 
HETATM   33  O3  UNL     1       2.491  52.103 -26.812  1.00  0.00    -0.265 OA
BRANCH  32  34
HETATM   34  O4  UNL     1       0.628  53.427 -26.605  1.00  0.00    -0.326 OA
HETATM   35  C30 UNL     1      -0.227  53.660 -27.724  1.00  0.00     0.213 C 
ENDBRANCH  32  34
ENDBRANCH  31  32
ENDBRANCH  30  31
ENDBRANCH  20  30
TORSDOF 8
ENDMDL
