MODEL 1
REMARK minimizedAffinity -6.17574549
REMARK CNNscore 0.512002051
REMARK CNNaffinity 5.56960297
REMARK  2 active torsions:
REMARK  status: ('A' for Active; 'I' for Inactive)
REMARK    1  A    between atoms: C4_5  and  S1_6 
REMARK    2  A    between atoms: S1_6  and  C5_7 
ROOT
HETATM    1  C5  UNL     1      -2.997  50.341 -23.091  1.00  0.00     0.029 A 
HETATM    2  C6  UNL     1      -1.922  49.908 -22.301  1.00  0.00     0.046 A 
HETATM    3  C7  UNL     1      -1.952  48.657 -21.676  1.00  0.00     0.057 A 
HETATM    4 CL2  UNL     1      -0.592  48.210 -20.711  1.00  0.00    -0.083 Cl
HETATM    5  C8  UNL     1      -3.059  47.820 -21.846  1.00  0.00     0.057 A 
HETATM    6 CL3  UNL     1      -3.166  46.264 -21.104  1.00  0.00    -0.082 Cl
HETATM    7  C9  UNL     1      -4.129  48.236 -22.641  1.00  0.00     0.051 A 
HETATM    8  C10 UNL     1      -4.100  49.488 -23.266  1.00  0.00     0.052 A 
HETATM    9 CL4  UNL     1      -5.458  49.906 -24.251  1.00  0.00    -0.083 Cl
ENDROOT
BRANCH   1  10
HETATM   10  S1  UNL     1      -2.860  51.961 -23.845  1.00  0.00    -0.089 SA
BRANCH  10  11
HETATM   11  C4  UNL     1      -1.300  51.799 -24.698  1.00  0.00     0.005 A 
HETATM   12  C3  UNL     1      -0.221  52.606 -24.322  1.00  0.00     0.020 A 
HETATM   13  C2  UNL     1       1.006  52.496 -24.981  1.00  0.00     0.025 A 
HETATM   14  C1  UNL     1       1.152  51.585 -26.025  1.00  0.00     0.034 A 
HETATM   15 CL1  UNL     1       2.661  51.448 -26.838  1.00  0.00    -0.084 Cl
HETATM   16  C12 UNL     1       0.080  50.785 -26.417  1.00  0.00     0.025 A 
HETATM   17  C11 UNL     1      -1.147  50.895 -25.756  1.00  0.00     0.020 A 
ENDBRANCH  10  11
ENDBRANCH   1  10
TORSDOF 2
ENDMDL
