MODEL 1
REMARK minimizedAffinity -7.84508657
REMARK  4 active torsions:
REMARK  status: ('A' for Active; 'I' for Inactive)
REMARK       I    between atoms: N1_1  and  C1_2 
REMARK       I    between atoms: C1_2  and  N2_4 
REMARK    1  A    between atoms: N2_4  and  N3_5 
REMARK    2  A    between atoms: C2_7  and  C3_8 
REMARK    3  A    between atoms: C6_11  and  O2_12 
REMARK    4  A    between atoms: O2_12  and  C7_13 
ROOT
HETATM    1  C3  UNL     1       0.540  52.930 -22.926  1.00  0.00    -0.019 A 
HETATM    2  C4  UNL     1       1.290  53.875 -22.219  1.00  0.00     0.015 A 
HETATM    3  C5  UNL     1       1.174  53.955 -20.830  1.00  0.00     0.038 A 
HETATM    4  C6  UNL     1       0.299  53.104 -20.154  1.00  0.00     0.076 A 
HETATM    5  C13 UNL     1      -0.434  52.143 -20.857  1.00  0.00     0.038 A 
HETATM    6  C14 UNL     1      -0.319  52.060 -22.246  1.00  0.00     0.015 A 
ENDROOT
BRANCH   1   7
HETATM    7  C2  UNL     1       0.641  52.822 -24.396  1.00  0.00     0.118 C 
HETATM    8  N3  UNL     1       0.459  53.849 -25.167  1.00  0.00    -0.307 N 
ATOM      9  H3  UNL     1       0.210  54.761 -24.783  1.00  0.00     0.186 HD
BRANCH   8  10
HETATM   10  N2  UNL     1       0.615  53.664 -26.518  1.00  0.00    -0.252 N 
HETATM   11  C1  UNL     1      -0.400  53.339 -27.399  1.00  0.00     0.332 C 
HETATM   12  N1  UNL     1       0.067  53.063 -28.653  1.00  0.00    -0.351 N 
HETATM   13  O1  UNL     1      -1.605  53.317 -27.180  1.00  0.00    -0.246 OA
HETATM   14  H1  UNL     1      -0.663  52.735 -29.274  1.00  0.00     0.160 HD
HETATM   15  H2  UNL     1       0.940  52.564 -28.736  1.00  0.00     0.160 HD
HETATM   16  H3  UNL     1       1.545  53.359 -26.772  1.00  0.00     0.191 HD
ENDBRANCH   8  10
ENDBRANCH   1   7
BRANCH   4  17
HETATM   17  O2  UNL     1       0.256  53.211 -18.783  1.00  0.00    -0.311 OA
BRANCH  17  18
HETATM   18  C7  UNL     1       0.308  52.043 -18.057  1.00  0.00     0.076 A 
HETATM   19  C8  UNL     1       1.169  52.020 -16.957  1.00  0.00     0.040 A 
HETATM   20  C9  UNL     1       1.242  50.879 -16.158  1.00  0.00     0.045 A 
HETATM   21  C10 UNL     1       0.444  49.779 -16.459  1.00  0.00     0.116 A 
HETATM   22  F1  UNL     1       0.516  48.684 -15.692  1.00  0.00    -0.206 F 
HETATM   23  C11 UNL     1      -0.431  49.801 -17.540  1.00  0.00     0.045 A 
HETATM   24  C12 UNL     1      -0.508  50.943 -18.340  1.00  0.00     0.040 A 
ENDBRANCH  17  18
ENDBRANCH   4  17
TORSDOF 4
ENDMDL
