MODEL 1
REMARK minimizedAffinity -7.47383976
REMARK CNNscore 0.329988033
REMARK CNNaffinity 6.4996376
REMARK  13 active torsions:
REMARK  status: ('A' for Active; 'I' for Inactive)
REMARK    1  A    between atoms: C3_3  and  O1_4 
REMARK    2  A    between atoms: N1_14  and  O2_16 
REMARK    3  A    between atoms: O2_16  and  C13_17 
REMARK    4  A    between atoms: C13_17  and  C14_18 
REMARK       I    between atoms: C14_18  and  N2_20 
REMARK    5  A    between atoms: N2_20  and  C15_21 
REMARK    6  A    between atoms: C15_21  and  C16_22 
REMARK    7  A    between atoms: C15_21  and  C21_32 
REMARK       I    between atoms: C16_22  and  N3_24 
REMARK    8  A    between atoms: N3_24  and  C17_25 
REMARK    9  A    between atoms: C17_25  and  C18_26 
REMARK   10  A    between atoms: C17_25  and  C19_28 
REMARK   11  A    between atoms: C18_26  and  S1_27 
REMARK   12  A    between atoms: C19_28  and  C20_29 
REMARK   13  A    between atoms: C20_29  and  O6_31 
ROOT
HETATM    1  C1  UNL     1      -0.439  54.462 -27.781  1.00  0.00     0.015 C 
HETATM    2  C2  UNL     1      -0.569  53.330 -27.406  1.00  0.00    -0.078 C 
HETATM    3  C3  UNL     1      -0.742  51.926 -26.959  1.00  0.00     0.128 C 
HETATM    4  C4  UNL     1       0.608  51.363 -26.492  1.00  0.00     0.052 C 
HETATM    5  C5  UNL     1       0.610  51.473 -24.963  1.00  0.00     0.010 C 
HETATM    6  C6  UNL     1      -0.712  52.172 -24.562  1.00  0.00     0.002 C 
HETATM    7  C7  UNL     1      -1.237  51.908 -23.120  1.00  0.00    -0.004 C 
HETATM    8  C8  UNL     1      -0.082  51.569 -22.159  1.00  0.00     0.010 C 
HETATM    9  C9  UNL     1      -0.554  51.412 -20.729  1.00  0.00     0.035 C 
HETATM   10  C10 UNL     1      -1.586  50.321 -20.627  1.00  0.00    -0.069 C 
HETATM   11  C11 UNL     1      -1.449  49.357 -19.697  1.00  0.00     0.030 C 
HETATM   12  C12 UNL     1      -2.529  48.372 -19.423  1.00  0.00     0.032 C 
HETATM   13  N1  UNL     1      -2.314  47.475 -18.504  1.00  0.00    -0.271 N 
ATOM     14  H1  UNL     1      -1.434  47.366 -18.000  1.00  0.00     0.194 HD
HETATM   15  C24 UNL     1      -3.834  48.530 -20.179  1.00  0.00     0.060 C 
HETATM   16  C25 UNL     1      -3.567  49.096 -21.566  1.00  0.00     0.020 C 
HETATM   17  C26 UNL     1      -2.788  50.440 -21.558  1.00  0.00    -0.016 C 
HETATM   18  C27 UNL     1      -3.716  51.538 -20.963  1.00  0.00     0.020 C 
HETATM   19  C28 UNL     1      -2.409  50.883 -23.038  1.00  0.00     0.002 C 
HETATM   20  C29 UNL     1      -2.175  49.771 -24.074  1.00  0.00     0.007 C 
HETATM   21  C30 UNL     1      -2.128  50.291 -25.524  1.00  0.00     0.014 C 
HETATM   22  C31 UNL     1      -1.666  51.770 -25.705  1.00  0.00     0.003 C 
HETATM   23  C32 UNL     1      -2.908  52.685 -25.807  1.00  0.00     0.020 C 
ENDROOT
BRANCH   3  24
HETATM   24  O1  UNL     1      -1.226  51.169 -28.061  1.00  0.00    -0.377 OA
HETATM   25  H2  UNL     1      -2.018  51.627 -28.390  1.00  0.00     0.211 HD
ENDBRANCH   3  24
BRANCH  13  26
HETATM   26  O2  UNL     1      -3.451  46.677 -18.297  1.00  0.00    -0.271 OA
BRANCH  26  27
HETATM   27  C13 UNL     1      -3.161  45.352 -18.713  1.00  0.00     0.303 C 
BRANCH  27  28
HETATM   28  C14 UNL     1      -3.276  44.382 -17.541  1.00  0.00     0.244 C 
HETATM   29  O3  UNL     1      -4.131  43.504 -17.449  1.00  0.00    -0.271 OA
HETATM   30  N2  UNL     1      -2.319  44.585 -16.570  1.00  0.00    -0.346 N 
HETATM   31  H16 UNL     1      -1.552  45.236 -16.727  1.00  0.00     0.163 HD
BRANCH  30  32
HETATM   32  C15 UNL     1      -2.240  43.792 -15.347  1.00  0.00     0.180 C 
BRANCH  32  33
HETATM   33  C16 UNL     1      -1.204  42.679 -15.628  1.00  0.00     0.241 C 
HETATM   34  O4  UNL     1      -1.469  41.486 -15.448  1.00  0.00    -0.271 OA
HETATM   35  N3  UNL     1       0.017  43.115 -16.095  1.00  0.00    -0.353 N 
HETATM   36  H18 UNL     1       0.162  44.106 -16.239  1.00  0.00     0.163 HD
BRANCH  35  37
HETATM   37  C17 UNL     1       1.139  42.199 -16.314  1.00  0.00     0.103 C 
BRANCH  37  38
HETATM   38  C18 UNL     1       0.894  40.841 -15.626  1.00  0.00     0.096 C 
BRANCH  38  39
HETATM   39  S1  UNL     1       2.239  40.372 -14.486  1.00  0.00    -0.180 SA
HETATM   40  H22 UNL     1       1.775  39.149 -14.198  1.00  0.00     0.101 HD
ENDBRANCH  38  39
ENDBRANCH  37  38
BRANCH  37  41
HETATM   41  C19 UNL     1       1.352  41.969 -17.813  1.00  0.00     0.136 C 
BRANCH  41  42
HETATM   42  C20 UNL     1       0.523  40.833 -18.348  1.00  0.00     0.141 C 
HETATM   43  O5  UNL     1       0.926  39.741 -18.710  1.00  0.00    -0.650 OA
BRANCH  42  44
HETATM   44  O6  UNL     1      -0.780  41.159 -18.479  1.00  0.00    -0.776 OA
HETATM   45  H25 UNL     1      -1.190  40.355 -18.871  1.00  0.00     0.167 HD
ENDBRANCH  42  44
ENDBRANCH  41  42
ENDBRANCH  37  41
ENDBRANCH  35  37
ENDBRANCH  32  33
BRANCH  32  46
HETATM   46  C21 UNL     1      -1.912  44.698 -14.139  1.00  0.00     0.009 C 
HETATM   47  C22 UNL     1      -1.270  46.030 -14.546  1.00  0.00     0.012 C 
HETATM   48  C23 UNL     1      -1.048  44.004 -13.085  1.00  0.00     0.012 C 
ENDBRANCH  32  46
ENDBRANCH  30  32
ENDBRANCH  27  28
ENDBRANCH  26  27
ENDBRANCH  13  26
TORSDOF 13
ENDMDL
