MODEL 1
REMARK minimizedAffinity -6.69965792
REMARK CNNscore 0.242267326
REMARK CNNaffinity 5.27199125
REMARK  2 active torsions:
REMARK  status: ('A' for Active; 'I' for Inactive)
REMARK    1  A    between atoms: C21_27  and  C22_28 
REMARK    2  A    between atoms: C22_28  and  O7_30 
ROOT
HETATM    1  C1  UNL     1       2.525  17.309  26.832  1.00  0.00     0.043 C 
HETATM    2  C2  UNL     1       2.198  16.879  25.423  1.00  0.00    -0.076 C 
HETATM    3  C3  UNL     1       2.557  15.644  25.005  1.00  0.00     0.084 C 
HETATM    4  C4  UNL     1       2.306  15.075  23.665  1.00  0.00     0.283 C 
HETATM    5  O1  UNL     1       1.662  15.589  22.769  1.00  0.00    -0.260 OA
HETATM    6  O2  UNL     1       2.927  13.870  23.622  1.00  0.00    -0.317 OA
HETATM    7  C5  UNL     1       2.730  13.106  22.431  1.00  0.00     0.195 C 
HETATM    8  C6  UNL     1       4.023  12.384  21.919  1.00  0.00     0.053 C 
HETATM    9  C7  UNL     1       4.636  11.501  23.074  1.00  0.00     0.159 C 
HETATM   10  C8  UNL     1       3.844  10.265  23.405  1.00  0.00     0.011 C 
HETATM   11  C9  UNL     1       3.082   9.633  22.490  1.00  0.00    -0.054 C 
HETATM   12  C10 UNL     1       2.336   8.373  22.822  1.00  0.00     0.046 C 
HETATM   13  C11 UNL     1       3.016  10.093  21.092  1.00  0.00     0.180 A 
HETATM   14  O3  UNL     1       4.234  10.337  20.370  1.00  0.00    -0.370 OA
HETATM   15  C12 UNL     1       3.496  11.498  20.767  1.00  0.00     0.170 A 
HETATM   16  O4  UNL     1       5.976  11.041  22.823  1.00  0.00    -0.372 OA
HETATM   17  C13 UNL     1       6.881  11.975  22.222  1.00  0.00     0.162 C 
HETATM   18  C14 UNL     1       7.045  13.230  23.079  1.00  0.00     0.068 C 
HETATM   19  C15 UNL     1       5.850  14.129  22.664  1.00  0.00     0.147 C 
HETATM   20  O5  UNL     1       6.216  15.531  22.630  1.00  0.00    -0.312 OA
HETATM   21  C16 UNL     1       7.167  16.002  21.799  1.00  0.00     0.283 C 
HETATM   22  O6  UNL     1       7.594  15.463  20.795  1.00  0.00    -0.260 OA
HETATM   23  C17 UNL     1       7.794  17.250  22.273  1.00  0.00     0.082 C 
HETATM   24  C18 UNL     1       7.292  18.331  22.881  1.00  0.00     0.006 C 
HETATM   25  C19 UNL     1       5.935  18.614  23.275  1.00  0.00    -0.001 C 
HETATM   26  C20 UNL     1       5.554  19.871  23.564  1.00  0.00     0.007 C 
HETATM   27  C21 UNL     1       4.184  20.370  23.955  1.00  0.00     0.172 C 
HETATM   28  O8  UNL     1       3.426  19.329  24.564  1.00  0.00    -0.379 OA
HETATM   29  C24 UNL     1       2.391  18.794  23.740  1.00  0.00     0.173 C 
HETATM   30  C25 UNL     1       1.474  17.915  24.591  1.00  0.00     0.060 C 
HETATM   31  C26 UNL     1       5.156  13.417  21.418  1.00  0.00     0.034 C 
HETATM   32  C27 UNL     1       4.638  14.405  20.375  1.00  0.00     0.022 C 
HETATM   33  C28 UNL     1       6.280  12.502  20.965  1.00  0.00     0.119 A 
HETATM   34  C29 UNL     1       6.446  11.858  19.601  1.00  0.00     0.210 A 
HETATM   35  O9  UNL     1       7.221  12.987  20.002  1.00  0.00    -0.371 OA
ENDROOT
BRANCH  27  36
HETATM   36  C22 UNL     1       4.289  21.528  24.988  1.00  0.00     0.146 C 
HETATM   37  C23 UNL     1       3.923  21.066  26.394  1.00  0.00     0.042 C 
BRANCH  36  38
HETATM   38  O7  UNL     1       3.443  22.627  24.643  1.00  0.00    -0.393 OA
HETATM   39  H27 UNL     1       2.521  22.362  24.776  1.00  0.00     0.210 HD
ENDBRANCH  36  38
ENDBRANCH  27  36
TORSDOF 2
ENDMDL
