MODEL 1
REMARK minimizedAffinity -10.0799484
REMARK  5 active torsions:
REMARK  status: ('A' for Active; 'I' for Inactive)
REMARK    1  A    between atoms: N1_1  and  C1_2 
REMARK    2  A    between atoms: C4_5  and  C5_6 
REMARK       I    between atoms: C5_6  and  N2_8 
REMARK    3  A    between atoms: C10_13  and  S1_14 
REMARK    4  A    between atoms: S1_14  and  N3_17 
REMARK    5  A    between atoms: C12_19  and  C13_20 
ROOT
HETATM    1  C5  UNL     1       0.740   6.001  12.538  1.00  0.00     0.258 C 
HETATM    2  O1  UNL     1       1.088   5.738  11.391  1.00  0.00    -0.267 OA
HETATM    3  N2  UNL     1      -0.465   5.668  13.139  1.00  0.00    -0.313 N 
HETATM    4  C6  UNL     1      -0.883   6.036  14.505  1.00  0.00     0.137 A 
HETATM    5  C7  UNL     1      -2.301   5.491  14.719  1.00  0.00     0.061 A 
HETATM    6  C8  UNL     1      -2.596   4.849  13.403  1.00  0.00    -0.028 A 
HETATM    7  C9  UNL     1      -3.764   4.198  13.030  1.00  0.00     0.034 A 
HETATM    8  C10 UNL     1      -3.828   3.657  11.742  1.00  0.00     0.080 A 
HETATM    9  C20 UNL     1      -2.735   3.744  10.861  1.00  0.00     0.027 A 
HETATM   10  C21 UNL     1      -1.568   4.409  11.254  1.00  0.00     0.032 A 
HETATM   11  C22 UNL     1      -1.513   4.959  12.525  1.00  0.00     0.043 A 
ENDROOT
BRANCH   8  12
HETATM   12  S1  UNL     1      -5.306   2.817  11.206  1.00  0.00     0.268 S 
HETATM   13  O2  UNL     1      -5.113   1.404  11.478  1.00  0.00    -0.200 OA
HETATM   14  O3  UNL     1      -5.602   3.273   9.867  1.00  0.00    -0.200 OA
BRANCH  12  15
HETATM   15  N3  UNL     1      -6.429   3.380  12.293  1.00  0.00    -0.221 N 
HETATM   16  C11 UNL     1      -6.580   4.834  12.495  1.00  0.00     0.176 C 
HETATM   17  C12 UNL     1      -7.996   4.909  13.108  1.00  0.00     0.138 C 
HETATM   18  N4  UNL     1      -8.326   3.542  13.448  1.00  0.00    -0.332 N 
HETATM   19  C19 UNL     1      -7.509   2.656  12.801  1.00  0.00     0.332 C 
HETATM   20  H18 UNL     1      -9.254   3.238  13.702  1.00  0.00     0.165 HD
HETATM   21  O4  UNL     1      -7.742   1.472  12.659  1.00  0.00    -0.246 OA
BRANCH  17  22
HETATM   22  C13 UNL     1      -8.122   5.844  14.282  1.00  0.00    -0.034 A 
HETATM   23  C14 UNL     1      -7.201   5.778  15.338  1.00  0.00     0.009 A 
HETATM   24  C15 UNL     1      -7.317   6.631  16.438  1.00  0.00     0.001 A 
HETATM   25  C16 UNL     1      -8.356   7.557  16.498  1.00  0.00     0.000 A 
HETATM   26  C17 UNL     1      -9.281   7.633  15.458  1.00  0.00     0.001 A 
HETATM   27  C18 UNL     1      -9.166   6.782  14.357  1.00  0.00     0.009 A 
ENDBRANCH  17  22
ENDBRANCH  12  15
ENDBRANCH   8  12
BRANCH   1  28
HETATM   28  C4  UNL     1       1.692   6.767  13.366  1.00  0.00     0.032 A 
HETATM   29  C3  UNL     1       2.731   7.460  12.744  1.00  0.00     0.019 A 
HETATM   30  C2  UNL     1       3.617   8.208  13.523  1.00  0.00     0.024 A 
HETATM   31  C1  UNL     1       3.504   8.223  14.918  1.00  0.00     0.005 A 
HETATM   32  C24 UNL     1       2.433   7.552  15.520  1.00  0.00     0.024 A 
HETATM   33  C23 UNL     1       1.538   6.803  14.752  1.00  0.00     0.019 A 
BRANCH  31  34
HETATM   34  N1  UNL     1       4.316   9.073  15.679  1.00  0.00    -0.303 NA
HETATM   35  H1  UNL     1       4.416   8.778  16.647  1.00  0.00     0.124 HD
HETATM   36  H2  UNL     1       5.216   9.269  15.252  1.00  0.00     0.124 HD
ENDBRANCH  31  34
ENDBRANCH   1  28
TORSDOF 5
ENDMDL
