MODEL 1
REMARK minimizedAffinity -7.84118652
REMARK CNNscore 0.81280148
REMARK CNNaffinity 7.06522322
REMARK  7 active torsions:
REMARK  status: ('A' for Active; 'I' for Inactive)
REMARK    1  A    between atoms: C2_2  and  C30_32 
REMARK    2  A    between atoms: C3_3  and  C4_4 
REMARK    3  A    between atoms: C4_4  and  C5_5 
REMARK    4  A    between atoms: C5_5  and  C6_6 
REMARK    5  A    between atoms: C6_6  and  C8_8 
REMARK    6  A    between atoms: C10_10  and  O1_11 
REMARK    7  A    between atoms: C30_32  and  O4_34 
ROOT
HETATM    1  C8  UNL     1      -2.476   9.827  14.345  1.00  0.00     0.001 C 
HETATM    2  C9  UNL     1      -3.619   9.619  15.370  1.00  0.00     0.038 C 
HETATM    3  C10 UNL     1      -3.024   9.887  16.770  1.00  0.00     0.128 C 
HETATM    4  C11 UNL     1      -1.677  10.606  16.505  1.00  0.00    -0.006 C 
HETATM    5  C12 UNL     1      -2.027  12.117  16.288  1.00  0.00     0.019 C 
HETATM    6  C13 UNL     1      -0.594  10.483  17.613  1.00  0.00     0.006 C 
HETATM    7  C14 UNL     1      -0.923  11.273  18.889  1.00  0.00     0.007 C 
HETATM    8  C15 UNL     1       0.149  11.045  19.949  1.00  0.00     0.007 C 
HETATM    9  C16 UNL     1       1.473  11.696  19.519  1.00  0.00     0.010 C 
HETATM   10  C17 UNL     1       2.666  11.537  20.523  1.00  0.00     0.018 C 
HETATM   11  C18 UNL     1       2.809  12.825  21.357  1.00  0.00     0.023 C 
HETATM   12  C19 UNL     1       2.482  10.354  21.496  1.00  0.00     0.023 C 
HETATM   13  C20 UNL     1       4.008  11.337  19.791  1.00  0.00     0.135 C 
HETATM   14  O2  UNL     1       4.931  10.688  20.291  1.00  0.00    -0.297 OA
HETATM   15  C21 UNL     1       4.254  12.047  18.475  1.00  0.00     0.080 C 
HETATM   16  C22 UNL     1       3.006  12.255  17.636  1.00  0.00     0.018 C 
HETATM   17  C23 UNL     1       1.887  11.344  18.091  1.00  0.00    -0.026 A 
HETATM   18  C24 UNL     1       1.941   9.910  17.642  1.00  0.00     0.021 A 
HETATM   19  C25 UNL     1       0.835  10.805  17.088  1.00  0.00    -0.027 A 
HETATM   20  C26 UNL     1       0.973  11.237  15.621  1.00  0.00     0.011 C 
HETATM   21  C27 UNL     1      -0.040  10.699  14.598  1.00  0.00     0.011 C 
HETATM   22  C28 UNL     1      -1.175   9.867  15.206  1.00  0.00    -0.030 C 
HETATM   23  C29 UNL     1      -0.626   8.438  15.443  1.00  0.00     0.016 C 
ENDROOT
BRANCH   1  24
HETATM   24  C6  UNL     1      -2.554   9.035  13.006  1.00  0.00    -0.013 C 
HETATM   25  C7  UNL     1      -3.863   8.220  12.973  1.00  0.00     0.010 C 
BRANCH  24  26
HETATM   26  C5  UNL     1      -1.390   8.138  12.517  1.00  0.00     0.008 C 
BRANCH  26  27
HETATM   27  C4  UNL     1      -0.606   8.594  11.286  1.00  0.00     0.028 C 
BRANCH  27  28
HETATM   28  C3  UNL     1       0.349   7.525  10.825  1.00  0.00    -0.013 C 
HETATM   29  C2  UNL     1       0.963   7.420   9.629  1.00  0.00     0.008 C 
HETATM   30  C1  UNL     1       0.801   8.359   8.468  1.00  0.00     0.055 C 
BRANCH  29  31
HETATM   31  C30 UNL     1       1.895   6.294   9.351  1.00  0.00     0.171 C 
HETATM   32  O3  UNL     1       2.656   6.225   8.401  1.00  0.00    -0.646 OA
BRANCH  31  33
HETATM   33  O4  UNL     1       1.851   5.307  10.262  1.00  0.00    -0.773 OA
HETATM   34  H46 UNL     1       2.508   4.658   9.930  1.00  0.00     0.167 HD
ENDBRANCH  31  33
ENDBRANCH  29  31
ENDBRANCH  27  28
ENDBRANCH  26  27
ENDBRANCH  24  26
ENDBRANCH   1  24
BRANCH   3  35
HETATM   35  O1  UNL     1      -2.846   8.656  17.460  1.00  0.00    -0.395 OA
HETATM   36  H17 UNL     1      -3.718   8.233  17.542  1.00  0.00     0.210 HD
ENDBRANCH   3  35
TORSDOF 7
ENDMDL
