MODEL 1
REMARK minimizedAffinity -7.92612791
REMARK CNNscore 0.831042707
REMARK CNNaffinity 6.9989562
REMARK  8 active torsions:
REMARK  status: ('A' for Active; 'I' for Inactive)
REMARK    1  A    between atoms: C4_4  and  C5_5 
REMARK    2  A    between atoms: C5_5  and  C6_6 
REMARK    3  A    between atoms: C6_6  and  C7_7 
REMARK    4  A    between atoms: C7_7  and  C9_9 
REMARK    5  A    between atoms: C15_15  and  O1_16 
REMARK    6  A    between atoms: C18_19  and  C20_21 
REMARK    7  A    between atoms: C20_21  and  O3_23 
REMARK    8  A    between atoms: C21_24  and  O4_25 
ROOT
HETATM    1  C9  UNL     1       4.921  56.010  -8.130  1.00  0.00    -0.002 C 
HETATM    2  C10 UNL     1       5.822  55.171  -9.071  1.00  0.00     0.006 C 
HETATM    3  C11 UNL     1       4.907  54.379 -10.021  1.00  0.00     0.011 C 
HETATM    4  C12 UNL     1       3.497  54.962  -9.812  1.00  0.00    -0.030 C 
HETATM    5  C13 UNL     1       3.396  56.208 -10.745  1.00  0.00     0.016 C 
HETATM    6  C14 UNL     1       2.325  53.974 -10.104  1.00  0.00     0.032 C 
HETATM    7  C15 UNL     1       2.088  53.649 -11.594  1.00  0.00     0.124 C 
HETATM    8  C16 UNL     1       0.970  52.612 -11.735  1.00  0.00     0.039 C 
HETATM    9  C17 UNL     1      -0.384  53.214 -11.340  1.00  0.00     0.018 C 
HETATM   10  C18 UNL     1      -1.597  52.218 -11.413  1.00  0.00     0.072 C 
HETATM   11  C19 UNL     1      -1.278  50.806 -10.879  1.00  0.00     0.030 C 
HETATM   12  C21 UNL     1      -2.849  52.796 -10.663  1.00  0.00     0.137 C 
HETATM   13  C22 UNL     1      -2.810  54.323 -10.578  1.00  0.00     0.034 C 
HETATM   14  C23 UNL     1      -1.594  54.822  -9.793  1.00  0.00     0.013 C 
HETATM   15  C24 UNL     1      -0.352  53.954 -10.005  1.00  0.00    -0.026 A 
HETATM   16  C25 UNL     1       0.211  53.282  -8.776  1.00  0.00     0.021 A 
HETATM   17  C26 UNL     1       1.007  54.410  -9.407  1.00  0.00    -0.025 A 
HETATM   18  C27 UNL     1       1.020  55.753  -8.679  1.00  0.00     0.011 C 
HETATM   19  C28 UNL     1       2.300  56.128  -7.917  1.00  0.00     0.011 C 
HETATM   20  C29 UNL     1       3.536  55.290  -8.272  1.00  0.00    -0.032 C 
HETATM   21  C30 UNL     1       3.531  54.022  -7.363  1.00  0.00     0.016 C 
ENDROOT
BRANCH   1  22
HETATM   22  C7  UNL     1       5.551  56.238  -6.720  1.00  0.00    -0.014 C 
HETATM   23  C8  UNL     1       5.475  57.713  -6.292  1.00  0.00     0.010 C 
BRANCH  22  24
HETATM   24  C6  UNL     1       7.051  55.826  -6.666  1.00  0.00     0.008 C 
BRANCH  24  25
HETATM   25  C5  UNL     1       7.907  56.625  -5.678  1.00  0.00     0.028 C 
BRANCH  25  26
HETATM   26  C4  UNL     1       9.235  55.951  -5.448  1.00  0.00    -0.025 C 
HETATM   27  C2  UNL     1      10.399  56.532  -5.100  1.00  0.00    -0.091 C 
HETATM   28  C1  UNL     1      11.650  55.710  -4.930  1.00  0.00     0.042 C 
HETATM   29  C3  UNL     1      10.585  58.000  -4.833  1.00  0.00     0.042 C 
ENDBRANCH  25  26
ENDBRANCH  24  25
ENDBRANCH  22  24
ENDBRANCH   1  22
BRANCH   7  30
HETATM   30  O1  UNL     1       3.272  53.099 -12.171  1.00  0.00    -0.395 OA
HETATM   31  H26 UNL     1       3.095  52.950 -13.113  1.00  0.00     0.210 HD
ENDBRANCH   7  30
BRANCH  10  32
HETATM   32  C20 UNL     1      -1.996  52.121 -12.890  1.00  0.00     0.151 C 
HETATM   33  O2  UNL     1      -1.436  51.455 -13.748  1.00  0.00    -0.649 OA
BRANCH  32  34
HETATM   34  O3  UNL     1      -3.103  52.813 -13.218  1.00  0.00    -0.776 OA
HETATM   35  H33 UNL     1      -3.215  52.648 -14.178  1.00  0.00     0.167 HD
ENDBRANCH  32  34
ENDBRANCH  10  32
BRANCH  12  36
HETATM   36  O4  UNL     1      -2.974  52.302  -9.323  1.00  0.00    -0.394 OA
HETATM   37  H35 UNL     1      -3.341  51.403  -9.364  1.00  0.00     0.210 HD
ENDBRANCH  12  36
TORSDOF 8
ENDMDL
