MODEL 1
REMARK minimizedAffinity -8.69585323
REMARK CNNscore 0.788818359
REMARK CNNaffinity 6.713552
REMARK  8 active torsions:
REMARK  status: ('A' for Active; 'I' for Inactive)
REMARK    1  A    between atoms: C2_2  and  C3_3 
REMARK    2  A    between atoms: C2_2  and  C27_30 
REMARK    3  A    between atoms: C3_3  and  C4_4 
REMARK    4  A    between atoms: C4_4  and  C5_5 
REMARK    5  A    between atoms: C5_5  and  C7_7 
REMARK    6  A    between atoms: C26_28  and  O3_29 
REMARK    7  A    between atoms: C27_30  and  C29_32 
REMARK    8  A    between atoms: C29_32  and  O5_34 
ROOT
HETATM    1  C7  UNL     1      -0.877  10.831  18.534  1.00  0.00    -0.002 C 
HETATM    2  C8  UNL     1      -2.397  10.881  18.840  1.00  0.00     0.006 C 
HETATM    3  C9  UNL     1      -3.088  10.049  17.753  1.00  0.00     0.010 C 
HETATM    4  C10 UNL     1      -1.948   9.261  17.101  1.00  0.00     0.027 C 
HETATM    5  C11 UNL     1      -2.117   8.498  15.801  1.00  0.00    -0.036 C 
HETATM    6  C12 UNL     1      -1.029   8.162  15.060  1.00  0.00     0.002 C 
HETATM    7  C13 UNL     1       0.328   8.715  15.461  1.00  0.00     0.157 C 
HETATM    8  O1  UNL     1       1.328   8.489  14.779  1.00  0.00    -0.293 OA
HETATM    9  C14 UNL     1       0.474   9.528  16.735  1.00  0.00     0.093 C 
HETATM   10  C15 UNL     1      -0.800  10.302  17.069  1.00  0.00    -0.026 C 
HETATM   11  C16 UNL     1      -1.024  11.408  16.014  1.00  0.00     0.016 C 
HETATM   12  C17 UNL     1      -1.097   7.242  13.819  1.00  0.00    -0.008 C 
HETATM   13  C18 UNL     1      -1.000   8.165  12.576  1.00  0.00     0.021 C 
HETATM   14  C19 UNL     1       0.076   6.205  13.783  1.00  0.00     0.022 C 
HETATM   15  C20 UNL     1      -0.243   4.846  13.162  1.00  0.00     0.080 C 
HETATM   16  C21 UNL     1      -1.317   4.941  12.114  1.00  0.00     0.131 C 
HETATM   17  O2  UNL     1      -1.170   4.454  10.994  1.00  0.00    -0.298 OA
HETATM   18  C22 UNL     1      -2.627   5.590  12.533  1.00  0.00     0.056 C 
HETATM   19  C23 UNL     1      -3.680   4.493  12.686  1.00  0.00     0.018 C 
HETATM   20  C24 UNL     1      -2.431   6.415  13.829  1.00  0.00     0.012 C 
HETATM   21  C25 UNL     1      -3.632   7.319  14.102  1.00  0.00     0.042 C 
HETATM   22  C26 UNL     1      -3.509   8.031  15.448  1.00  0.00     0.148 C 
ENDROOT
BRANCH   1  23
HETATM   23  C5  UNL     1      -0.099  12.091  19.015  1.00  0.00    -0.014 C 
HETATM   24  C6  UNL     1      -0.141  13.300  18.077  1.00  0.00     0.010 C 
BRANCH  23  25
HETATM   25  C4  UNL     1       1.351  11.734  19.428  1.00  0.00     0.009 C 
BRANCH  25  26
HETATM   26  C3  UNL     1       1.466  10.643  20.513  1.00  0.00     0.034 C 
BRANCH  26  27
HETATM   27  C2  UNL     1       2.450  10.829  21.658  1.00  0.00    -0.075 C 
HETATM   28  C1  UNL     1       2.656  12.011  22.267  1.00  0.00     0.015 C 
BRANCH  27  29
HETATM   29  C27 UNL     1       3.272   9.611  22.079  1.00  0.00     0.107 C 
HETATM   30  C28 UNL     1       4.490   9.966  22.932  1.00  0.00     0.026 C 
BRANCH  29  31
HETATM   31  C29 UNL     1       2.404   8.596  22.811  1.00  0.00     0.147 C 
HETATM   32  O4  UNL     1       1.744   7.698  22.313  1.00  0.00    -0.650 OA
BRANCH  31  33
HETATM   33  O5  UNL     1       2.413   8.768  24.150  1.00  0.00    -0.776 OA
HETATM   34  H42 UNL     1       1.843   8.044  24.483  1.00  0.00     0.167 HD
ENDBRANCH  31  33
ENDBRANCH  29  31
ENDBRANCH  27  29
ENDBRANCH  26  27
ENDBRANCH  25  26
ENDBRANCH  23  25
ENDBRANCH   1  23
BRANCH  22  35
HETATM   35  O3  UNL     1      -4.384   9.151  15.393  1.00  0.00    -0.391 OA
HETATM   36  H37 UNL     1      -5.287   8.813  15.279  1.00  0.00     0.210 HD
ENDBRANCH  22  35
TORSDOF 8
ENDMDL
