MODEL 1
REMARK minimizedAffinity -7.49171734
REMARK CNNscore 0.524522722
REMARK CNNaffinity 6.96375465
REMARK  12 active torsions:
REMARK  status: ('A' for Active; 'I' for Inactive)
REMARK    1  A    between atoms: O1_2  and  C2_3 
REMARK    2  A    between atoms: C2_3  and  C5_6 
REMARK    3  A    between atoms: C6_7  and  C7_8 
REMARK    4  A    between atoms: C7_8  and  C8_9 
REMARK    5  A    between atoms: C8_9  and  C10_11 
REMARK    6  A    between atoms: C28_30  and  O3_31 
REMARK    7  A    between atoms: O3_31  and  C29_32 
REMARK    8  A    between atoms: C30_34  and  C31_35 
REMARK    9  A    between atoms: C31_35  and  O5_36 
REMARK   10  A    between atoms: C32_37  and  O6_38 
REMARK   11  A    between atoms: C33_39  and  O7_40 
REMARK   12  A    between atoms: C34_41  and  O8_42 
ROOT
HETATM    1  C10 UNL     1      -3.861  12.725  17.892  1.00  0.00    -0.002 C 
HETATM    2  C11 UNL     1      -3.697  11.731  19.092  1.00  0.00     0.006 C 
HETATM    3  C12 UNL     1      -2.875  10.518  18.584  1.00  0.00     0.011 C 
HETATM    4  C13 UNL     1      -2.281  11.006  17.253  1.00  0.00    -0.029 C 
HETATM    5  C14 UNL     1      -1.054  11.913  17.677  1.00  0.00     0.016 C 
HETATM    6  C15 UNL     1      -1.710   9.957  16.226  1.00  0.00     0.028 C 
HETATM    7  C16 UNL     1      -1.831   8.476  16.446  1.00  0.00    -0.021 C 
HETATM    8  C17 UNL     1      -1.637   7.634  15.412  1.00  0.00     0.008 C 
HETATM    9  C18 UNL     1      -1.409   8.123  13.971  1.00  0.00     0.092 C 
HETATM   10  O2  UNL     1      -2.749   8.347  13.504  1.00  0.00    -0.374 OA
HETATM   11  C19 UNL     1      -3.108   9.682  13.930  1.00  0.00     0.179 C 
HETATM   12  C20 UNL     1      -1.898  10.320  14.699  1.00  0.00    -0.004 C 
HETATM   13  C21 UNL     1      -1.925  11.844  14.533  1.00  0.00     0.014 C 
HETATM   14  C22 UNL     1      -3.009  12.563  15.383  1.00  0.00     0.011 C 
HETATM   15  C23 UNL     1      -3.481  11.823  16.666  1.00  0.00    -0.032 C 
HETATM   16  C24 UNL     1      -4.713  10.913  16.372  1.00  0.00     0.016 C 
HETATM   17  C25 UNL     1      -0.810   9.553  13.907  1.00  0.00     0.036 C 
HETATM   18  C26 UNL     1       0.665   9.576  14.309  1.00  0.00     0.011 C 
HETATM   19  C27 UNL     1       1.474   8.608  13.442  1.00  0.00     0.033 C 
HETATM   20  C28 UNL     1       0.890   7.179  13.439  1.00  0.00     0.136 C 
HETATM   21  C35 UNL     1      -0.621   7.147  13.038  1.00  0.00     0.014 C 
HETATM   22  C36 UNL     1      -0.802   7.540  11.544  1.00  0.00     0.021 C 
HETATM   23  C37 UNL     1      -1.150   5.693  13.140  1.00  0.00     0.021 C 
ENDROOT
BRANCH  20  24
HETATM   24  O3  UNL     1       1.612   6.340  12.529  1.00  0.00    -0.352 OA
BRANCH  24  25
HETATM   25  C29 UNL     1       2.413   7.035  11.570  1.00  0.00     0.292 C 
HETATM   26  O4  UNL     1       1.920   6.772  10.258  1.00  0.00    -0.348 OA
HETATM   27  C30 UNL     1       2.547   7.595   9.263  1.00  0.00     0.179 C 
HETATM   28  C32 UNL     1       4.080   7.679   9.442  1.00  0.00     0.180 C 
HETATM   29  C33 UNL     1       4.588   6.546  10.342  1.00  0.00     0.183 C 
HETATM   30  C34 UNL     1       3.856   6.498  11.695  1.00  0.00     0.204 C 
BRANCH  27  31
HETATM   31  C31 UNL     1       2.178   7.004   7.898  1.00  0.00     0.198 C 
BRANCH  31  32
HETATM   32  O5  UNL     1       2.694   5.685   7.768  1.00  0.00    -0.398 OA
HETATM   33  H48 UNL     1       2.486   5.388   6.865  1.00  0.00     0.209 HD
ENDBRANCH  31  32
ENDBRANCH  27  31
BRANCH  28  34
HETATM   34  O6  UNL     1       4.442   8.926  10.066  1.00  0.00    -0.390 OA
HETATM   35  H50 UNL     1       4.234   9.634   9.429  1.00  0.00     0.210 HD
ENDBRANCH  28  34
BRANCH  29  36
HETATM   36  O7  UNL     1       6.000   6.701  10.568  1.00  0.00    -0.390 OA
HETATM   37  H52 UNL     1       6.110   7.665  10.724  1.00  0.00     0.210 HD
ENDBRANCH  29  36
BRANCH  30  38
HETATM   38  O8  UNL     1       4.583   7.236  12.696  1.00  0.00    -0.388 OA
HETATM   39  H54 UNL     1       5.490   6.870  12.669  1.00  0.00     0.210 HD
ENDBRANCH  30  38
ENDBRANCH  24  25
ENDBRANCH  20  24
BRANCH   1  40
HETATM   40  C8  UNL     1      -5.233  13.470  17.925  1.00  0.00    -0.010 C 
HETATM   41  C9  UNL     1      -5.116  14.910  17.408  1.00  0.00     0.010 C 
BRANCH  40  42
HETATM   42  C7  UNL     1      -5.811  13.473  19.369  1.00  0.00     0.031 C 
BRANCH  42  43
HETATM   43  C6  UNL     1      -5.524  14.661  20.260  1.00  0.00    -0.027 C 
HETATM   44  C5  UNL     1      -4.576  14.759  21.209  1.00  0.00     0.006 C 
BRANCH  44  45
HETATM   45  C2  UNL     1      -4.264  15.957  22.091  1.00  0.00     0.070 C 
HETATM   46  C3  UNL     1      -3.067  16.816  21.652  1.00  0.00     0.050 C 
HETATM   47  C4  UNL     1      -3.980  15.428  23.507  1.00  0.00     0.050 C 
BRANCH  45  48
HETATM   48  O1  UNL     1      -5.459  16.749  22.221  1.00  0.00    -0.382 OA
HETATM   49  C1  UNL     1      -5.918  16.979  23.545  1.00  0.00     0.202 C 
ENDBRANCH  45  48
ENDBRANCH  44  45
ENDBRANCH  42  43
ENDBRANCH  40  42
ENDBRANCH   1  40
TORSDOF 12
ENDMDL
