MODEL 1
REMARK minimizedAffinity -8.979146
REMARK  6 active torsions:
REMARK  status: ('A' for Active; 'I' for Inactive)
REMARK    1  A    between atoms: C6_8  and  C7_9 
REMARK    2  A    between atoms: C10_12  and  O1_13 
REMARK    3  A    between atoms: O1_13  and  C11_14 
REMARK    4  A    between atoms: C18_22  and  C19_23 
REMARK    5  A    between atoms: C22_26  and  O2_27 
REMARK    6  A    between atoms: O2_27  and  C23_28 
ROOT
HETATM    1  C1  UNL     1      -0.682  53.333 -27.834  1.00  0.00     0.049 C 
HETATM    2  C2  UNL     1      -0.390  53.216 -26.363  1.00  0.00    -0.046 A 
HETATM    3  C3  UNL     1       0.387  54.125 -25.732  1.00  0.00     0.056 A 
HETATM    4  C4  UNL     1       0.660  54.004 -24.343  1.00  0.00     0.112 A 
HETATM    5  N1  UNL     1       1.395  54.746 -23.545  1.00  0.00    -0.350 N 
ATOM      6  H1  UNL     1       1.924  55.583 -23.789  1.00  0.00     0.166 HD
HETATM    7  C5  UNL     1       1.298  54.151 -22.315  1.00  0.00     0.120 A 
HETATM    8  C6  UNL     1       0.484  53.034 -22.345  1.00  0.00     0.066 A 
HETATM    9  N2  UNL     1       0.087  52.930 -23.669  1.00  0.00    -0.305 N 
HETATM   10  C17 UNL     1      -0.709  51.975 -24.303  1.00  0.00     0.112 A 
HETATM   11  C18 UNL     1      -0.968  52.078 -25.623  1.00  0.00    -0.004 A 
ENDROOT
BRANCH   8  12
HETATM   12  C7  UNL     1       0.112  52.123 -21.270  1.00  0.00    -0.007 A 
HETATM   13  C8  UNL     1       0.047  50.741 -21.490  1.00  0.00     0.016 A 
HETATM   14  C9  UNL     1      -0.319  49.876 -20.456  1.00  0.00     0.037 A 
HETATM   15  C10 UNL     1      -0.655  50.392 -19.207  1.00  0.00     0.069 A 
HETATM   16  C15 UNL     1      -0.559  51.761 -18.966  1.00  0.00     0.037 A 
HETATM   17  C16 UNL     1      -0.193  52.626 -19.999  1.00  0.00     0.016 A 
BRANCH  15  18
HETATM   18  O1  UNL     1      -0.956  49.549 -18.177  1.00  0.00    -0.341 OA
BRANCH  18  19
HETATM   19  C11 UNL     1      -0.549  49.966 -16.854  1.00  0.00     0.057 C 
HETATM   20  C12 UNL     1      -1.661  50.726 -16.117  1.00  0.00     0.045 C 
HETATM   21  C13 UNL     1      -0.290  48.649 -16.102  1.00  0.00     0.045 C 
HETATM   22  C14 UNL     1       0.755  50.779 -16.853  1.00  0.00     0.045 C 
ENDBRANCH  18  19
ENDBRANCH  15  18
ENDBRANCH   8  12
BRANCH  11  23
HETATM   23  C19 UNL     1      -1.814  51.033 -26.222  1.00  0.00    -0.024 A 
HETATM   24  C20 UNL     1      -1.897  49.768 -25.634  1.00  0.00     0.015 A 
HETATM   25  C21 UNL     1      -2.709  48.784 -26.203  1.00  0.00     0.037 A 
HETATM   26  C22 UNL     1      -3.442  49.043 -27.364  1.00  0.00     0.069 A 
HETATM   27  C26 UNL     1      -3.365  50.307 -27.948  1.00  0.00     0.037 A 
HETATM   28  C27 UNL     1      -2.554  51.298 -27.379  1.00  0.00     0.015 A 
BRANCH  26  29
HETATM   29  O2  UNL     1      -4.194  47.990 -27.802  1.00  0.00    -0.347 OA
BRANCH  29  30
HETATM   30  C23 UNL     1      -5.406  48.243 -28.519  1.00  0.00     0.120 C 
HETATM   31  C24 UNL     1      -5.228  47.632 -29.908  1.00  0.00     0.040 C 
HETATM   32  C25 UNL     1      -6.580  47.579 -27.807  1.00  0.00     0.040 C 
ENDBRANCH  29  30
ENDBRANCH  26  29
ENDBRANCH  11  23
TORSDOF 6
ENDMDL
