MODEL 1
REMARK minimizedAffinity -9.95981598
REMARK  11 active torsions:
REMARK  status: ('A' for Active; 'I' for Inactive)
REMARK    1  A    between atoms: C6_6  and  C8_8 
REMARK    2  A    between atoms: C8_8  and  O1_9 
REMARK    3  A    between atoms: O1_9  and  C9_10 
REMARK    4  A    between atoms: C10_12  and  C11_13 
REMARK    5  A    between atoms: C11_13  and  O3_14 
REMARK    6  A    between atoms: C12_15  and  O4_16 
REMARK    7  A    between atoms: C13_17  and  O5_18 
REMARK    8  A    between atoms: C14_19  and  O6_20 
REMARK    9  A    between atoms: C20_26  and  C21_27 
REMARK   10  A    between atoms: C21_27  and  C22_28 
REMARK   11  A    between atoms: C26_34  and  O9_35 
ROOT
HETATM    1  C1  UNL     1      -5.066   4.427  12.493  1.00  0.00     0.015 C 
HETATM    2  C2  UNL     1      -4.099   4.924  13.282  1.00  0.00    -0.084 C 
HETATM    3  C3  UNL     1      -2.655   4.543  13.068  1.00  0.00     0.034 C 
HETATM    4  C4  UNL     1      -1.703   5.717  13.345  1.00  0.00     0.010 C 
HETATM    5  C5  UNL     1      -2.363   7.081  13.027  1.00  0.00     0.005 C 
HETATM    6  C6  UNL     1      -1.350   8.301  12.869  1.00  0.00    -0.018 C 
HETATM    7  C7  UNL     1      -1.534   8.926  11.461  1.00  0.00     0.018 C 
HETATM    8  C15 UNL     1      -1.623   9.420  13.903  1.00  0.00     0.012 C 
HETATM    9  C16 UNL     1      -1.884   8.838  15.274  1.00  0.00     0.002 C 
HETATM   10  C17 UNL     1      -3.186   8.053  15.315  1.00  0.00     0.010 C 
HETATM   11  C18 UNL     1      -3.608   7.316  14.006  1.00  0.00    -0.032 C 
HETATM   12  C19 UNL     1      -4.646   8.185  13.246  1.00  0.00     0.016 C 
HETATM   13  C20 UNL     1      -4.289   5.925  14.416  1.00  0.00     0.025 C 
ENDROOT
BRANCH   6  14
HETATM   14  C8  UNL     1       0.148   7.873  12.984  1.00  0.00     0.180 C 
BRANCH  14  15
HETATM   15  O1  UNL     1       0.969   8.685  12.138  1.00  0.00    -0.358 OA
BRANCH  15  16
HETATM   16  C9  UNL     1       1.493   7.971  11.014  1.00  0.00     0.291 C 
HETATM   17  O2  UNL     1       2.887   8.231  10.874  1.00  0.00    -0.348 OA
HETATM   18  C10 UNL     1       3.589   7.378   9.944  1.00  0.00     0.179 C 
HETATM   19  C12 UNL     1       2.701   6.353   9.218  1.00  0.00     0.180 C 
HETATM   20  C13 UNL     1       1.765   5.595  10.169  1.00  0.00     0.183 C 
HETATM   21  C14 UNL     1       1.241   6.478  11.304  1.00  0.00     0.204 C 
BRANCH  18  22
HETATM   22  C11 UNL     1       4.772   6.756  10.696  1.00  0.00     0.198 C 
BRANCH  22  23
HETATM   23  O3  UNL     1       4.962   5.411  10.238  1.00  0.00    -0.398 OA
HETATM   24  H17 UNL     1       4.997   5.485   9.266  1.00  0.00     0.209 HD
ENDBRANCH  22  23
ENDBRANCH  18  22
BRANCH  19  25
HETATM   25  O4  UNL     1       3.460   5.430   8.436  1.00  0.00    -0.390 OA
HETATM   26  H19 UNL     1       3.496   4.604   8.965  1.00  0.00     0.210 HD
ENDBRANCH  19  25
BRANCH  20  27
HETATM   27  O5  UNL     1       2.443   4.433  10.681  1.00  0.00    -0.390 OA
HETATM   28  H21 UNL     1       2.548   4.601  11.644  1.00  0.00     0.210 HD
ENDBRANCH  20  27
BRANCH  21  29
HETATM   29  O6  UNL     1       1.912   6.093  12.530  1.00  0.00    -0.388 OA
HETATM   30  H23 UNL     1       1.774   6.850  13.139  1.00  0.00     0.210 HD
ENDBRANCH  21  29
ENDBRANCH  15  16
ENDBRANCH  14  15
ENDBRANCH   6  14
BRANCH  13  31
HETATM   31  C21 UNL     1      -5.750   5.971  14.957  1.00  0.00     0.037 C 
BRANCH  31  32
HETATM   32  C22 UNL     1      -6.821   5.794  13.915  1.00  0.00    -0.010 C 
HETATM   33  C23 UNL     1      -8.047   6.343  13.918  1.00  0.00     0.044 C 
HETATM   34  C24 UNL     1      -8.979   6.114  12.786  1.00  0.00     0.291 C 
HETATM   35  C26 UNL     1      -8.747   7.229  14.881  1.00  0.00     0.181 C 
HETATM   36  O7  UNL     1      -8.705   5.591  11.721  1.00  0.00    -0.260 OA
HETATM   37  O8  UNL     1     -10.194   6.635  13.115  1.00  0.00    -0.315 OA
HETATM   38  C25 UNL     1     -10.192   6.994  14.494  1.00  0.00     0.215 C 
BRANCH  35  39
HETATM   39  O9  UNL     1      -8.517   6.876  16.234  1.00  0.00    -0.389 OA
HETATM   40  H40 UNL     1      -8.895   7.577  16.792  1.00  0.00     0.210 HD
ENDBRANCH  35  39
ENDBRANCH  31  32
ENDBRANCH  13  31
TORSDOF 11
ENDMDL
