MODEL 1
REMARK minimizedAffinity -8.24393272
REMARK CNNscore 0.628837287
REMARK CNNaffinity 6.62298727
REMARK  18 active torsions:
REMARK  status: ('A' for Active; 'I' for Inactive)
REMARK    1  A    between atoms: C2_2  and  C3_3 
REMARK    2  A    between atoms: C3_3  and  C4_4 
REMARK    3  A    between atoms: C3_3  and  C19_25 
REMARK    4  A    between atoms: C4_4  and  C5_6 
REMARK    5  A    between atoms: C5_6  and  C7_8 
REMARK    6  A    between atoms: C7_8  and  O2_9 
REMARK    7  A    between atoms: C7_8  and  C8_10 
REMARK    8  A    between atoms: C8_10  and  C10_12 
REMARK    9  A    between atoms: C11_14  and  C12_15 
REMARK   10  A    between atoms: C12_15  and  C13_16 
REMARK   11  A    between atoms: C13_16  and  O5_18 
REMARK   12  A    between atoms: O5_18  and  O6_19 
REMARK   13  A    between atoms: C20_27  and  C22_29 
REMARK   14  A    between atoms: C22_29  and  O8_30 
REMARK   15  A    between atoms: C23_32  and  C24_33 
REMARK   16  A    between atoms: C23_32  and  C26_35 
REMARK   17  A    between atoms: C26_35  and  O10_36 
REMARK   18  A    between atoms: C26_35  and  C27_37 
ROOT
HETATM    1  C3  UNL     1      -1.800  50.054 -19.682  1.00  0.00     0.085 C 
ENDROOT
BRANCH   1   2
HETATM    2  C2  UNL     1      -0.513  50.380 -20.464  1.00  0.00     0.010 C 
HETATM    3  C1  UNL     1      -0.026  51.815 -20.350  1.00  0.00     0.006 C 
ENDBRANCH   1   2
BRANCH   1   4
HETATM    4  C4  UNL     1      -1.903  50.877 -18.395  1.00  0.00     0.139 C 
HETATM    5  O1  UNL     1      -2.394  52.013 -18.411  1.00  0.00    -0.297 OA
BRANCH   4   6
HETATM    6  C5  UNL     1      -1.403  50.292 -17.063  1.00  0.00     0.081 C 
HETATM    7  C6  UNL     1       0.084  50.591 -16.862  1.00  0.00     0.020 C 
BRANCH   6   8
HETATM    8  C7  UNL     1      -2.297  50.696 -15.877  1.00  0.00     0.135 C 
BRANCH   8   9
HETATM    9  O2  UNL     1      -3.590  50.105 -16.015  1.00  0.00    -0.394 OA
HETATM   10  H12 UNL     1      -3.513  49.152 -15.793  1.00  0.00     0.210 HD
ENDBRANCH   8   9
BRANCH   8  11
HETATM   11  C8  UNL     1      -1.803  50.431 -14.421  1.00  0.00     0.040 C 
HETATM   12  C9  UNL     1      -2.440  49.213 -13.752  1.00  0.00     0.015 C 
BRANCH  11  13
HETATM   13  C10 UNL     1      -1.619  51.650 -13.459  1.00  0.00     0.132 C 
HETATM   14  O3  UNL     1      -2.676  51.563 -12.478  1.00  0.00    -0.379 OA
HETATM   15  C11 UNL     1      -2.904  52.798 -11.775  1.00  0.00     0.135 C 
HETATM   16  C14 UNL     1      -1.665  53.102 -10.914  1.00  0.00     0.011 C 
HETATM   17  C15 UNL     1      -1.771  54.418 -10.147  1.00  0.00     0.012 C 
HETATM   18  C16 UNL     1      -0.419  53.136 -11.813  1.00  0.00     0.013 C 
HETATM   19  C17 UNL     1      -0.298  51.862 -12.681  1.00  0.00     0.011 C 
HETATM   20  C18 UNL     1       0.956  51.982 -13.544  1.00  0.00     0.012 C 
BRANCH  15  21
HETATM   21  C12 UNL     1      -4.182  52.609 -10.957  1.00  0.00     0.146 C 
BRANCH  21  22
HETATM   22  C13 UNL     1      -4.155  51.272 -10.267  1.00  0.00     0.291 C 
HETATM   23  O4  UNL     1      -3.470  51.005  -9.289  1.00  0.00    -0.263 OA
BRANCH  22  24
HETATM   24  O5  UNL     1      -4.975  50.376 -10.889  1.00  0.00    -0.161 OA
BRANCH  24  25
HETATM   25  O6  UNL     1      -6.286  50.434 -10.229  1.00  0.00    -0.242 OA
HETATM   26  H21 UNL     1      -6.366  51.408 -10.174  1.00  0.00     0.254 HD
ENDBRANCH  24  25
ENDBRANCH  22  24
ENDBRANCH  21  22
ENDBRANCH  15  21
ENDBRANCH  11  13
ENDBRANCH   8  11
ENDBRANCH   6   8
ENDBRANCH   4   6
ENDBRANCH   1   4
BRANCH   1  27
HETATM   27  C19 UNL     1      -3.086  50.210 -20.525  1.00  0.00     0.138 C 
HETATM   28  O7  UNL     1      -2.725  50.288 -21.934  1.00  0.00    -0.368 OA
HETATM   29  C20 UNL     1      -3.545  49.359 -22.700  1.00  0.00     0.114 C 
HETATM   30  C21 UNL     1      -2.653  48.129 -22.928  1.00  0.00     0.052 C 
HETATM   31  C32 UNL     1      -4.721  49.036 -21.778  1.00  0.00     0.050 C 
HETATM   32  C33 UNL     1      -4.077  49.041 -20.404  1.00  0.00     0.014 C 
HETATM   33  C34 UNL     1      -5.103  49.150 -19.287  1.00  0.00     0.012 C 
BRANCH  29  34
HETATM   34  C22 UNL     1      -3.967  50.042 -24.050  1.00  0.00     0.197 C 
HETATM   35  O9  UNL     1      -3.162  49.547 -25.137  1.00  0.00    -0.338 OA
HETATM   36  C23 UNL     1      -2.910  50.606 -26.107  1.00  0.00     0.090 C 
HETATM   37  C29 UNL     1      -3.672  51.830 -25.585  1.00  0.00     0.050 C 
HETATM   38  C30 UNL     1      -3.818  51.571 -24.094  1.00  0.00     0.050 C 
HETATM   39  C31 UNL     1      -4.957  52.407 -23.526  1.00  0.00     0.015 C 
BRANCH  34  40
HETATM   40  O8  UNL     1      -5.303  49.656 -24.364  1.00  0.00    -0.363 OA
HETATM   41  H36 UNL     1      -5.347  48.725 -24.064  1.00  0.00     0.213 HD
ENDBRANCH  34  40
BRANCH  36  42
HETATM   42  C24 UNL     1      -1.386  50.855 -26.073  1.00  0.00     0.036 C 
HETATM   43  C25 UNL     1      -0.983  52.321 -26.194  1.00  0.00     0.008 C 
ENDBRANCH  36  42
BRANCH  36  44
HETATM   44  C26 UNL     1      -3.466  50.117 -27.483  1.00  0.00     0.152 C 
BRANCH  44  45
HETATM   45  O10 UNL     1      -2.559  50.551 -28.521  1.00  0.00    -0.393 OA
HETATM   46  H43 UNL     1      -2.294  51.463 -28.290  1.00  0.00     0.210 HD
ENDBRANCH  44  45
BRANCH  44  47
HETATM   47  C27 UNL     1      -3.610  48.597 -27.671  1.00  0.00     0.030 C 
HETATM   48  C28 UNL     1      -5.021  48.110 -27.964  1.00  0.00     0.007 C 
ENDBRANCH  44  47
ENDBRANCH  36  44
ENDBRANCH  29  34
ENDBRANCH   1  27
TORSDOF 18
ENDMDL
