MODEL 1
REMARK minimizedAffinity -9.26349258
REMARK CNNscore 0.633674324
REMARK CNNaffinity 6.97585535
REMARK  4 active torsions:
REMARK  status: ('A' for Active; 'I' for Inactive)
REMARK    1  A    between atoms: C7_11  and  O3_12 
REMARK    2  A    between atoms: C10_16  and  C11_17 
REMARK    3  A    between atoms: C21_28  and  C22_29 
REMARK    4  A    between atoms: C28_37  and  O8_38 
ROOT
HETATM    1  C1  UNL     1      -8.520  39.925 -17.697  1.00  0.00     0.040 C 
HETATM    2  C2  UNL     1      -7.392  40.726 -18.333  1.00  0.00     0.124 C 
HETATM    3  C3  UNL     1      -6.055  40.411 -17.664  1.00  0.00     0.082 C 
HETATM    4  C4  UNL     1      -5.007  41.535 -17.871  1.00  0.00     0.175 C 
HETATM    5  N1  UNL     1      -4.840  42.331 -16.664  1.00  0.00    -0.335 N 
HETATM    6  C5  UNL     1      -3.861  41.994 -15.777  1.00  0.00     0.230 C 
HETATM    7  O1  UNL     1      -3.798  42.455 -14.646  1.00  0.00    -0.273 OA
HETATM    8  C6  UNL     1      -2.926  40.965 -16.326  1.00  0.00     0.214 C 
HETATM    9  S1  UNL     1      -3.369  40.670 -18.055  1.00  0.00     0.059 S 
HETATM   10  O2  UNL     1      -2.348  41.559 -19.018  1.00  0.00    -0.255 OA
HETATM   11  C7  UNL     1      -5.346  42.417 -19.112  1.00  0.00     0.252 C 
HETATM   12  O4  UNL     1      -4.386  43.459 -19.315  1.00  0.00    -0.340 OA
HETATM   13  C8  UNL     1      -4.983  44.645 -19.824  1.00  0.00     0.156 C 
HETATM   14  C9  UNL     1      -3.877  45.659 -20.126  1.00  0.00     0.056 C 
HETATM   15  C10 UNL     1      -4.411  47.042 -20.582  1.00  0.00     0.043 C 
HETATM   16  C12 UNL     1      -5.605  47.495 -19.734  1.00  0.00    -0.065 C 
HETATM   17  C13 UNL     1      -5.782  48.780 -19.377  1.00  0.00    -0.022 C 
HETATM   18  C14 UNL     1      -4.860  49.906 -19.733  1.00  0.00     0.035 C 
HETATM   19  C15 UNL     1      -3.731  49.547 -20.723  1.00  0.00     0.030 C 
HETATM   20  C16 UNL     1      -3.237  48.098 -20.482  1.00  0.00     0.012 C 
HETATM   21  C17 UNL     1      -2.028  47.764 -21.370  1.00  0.00     0.007 C 
HETATM   22  C18 UNL     1      -0.902  48.776 -21.195  1.00  0.00     0.013 C 
HETATM   23  C19 UNL     1      -1.325  50.234 -21.520  1.00  0.00    -0.005 C 
HETATM   24  C20 UNL     1      -1.541  50.358 -23.042  1.00  0.00     0.019 C 
HETATM   25  C21 UNL     1      -0.200  51.186 -20.956  1.00  0.00     0.028 C 
HETATM   26  C26 UNL     1      -0.759  51.748 -19.628  1.00  0.00     0.013 C 
HETATM   27  C27 UNL     1      -2.022  50.952 -19.323  1.00  0.00     0.040 C 
HETATM   28  C28 UNL     1      -2.600  50.622 -20.709  1.00  0.00     0.070 C 
HETATM   29  C29 UNL     1      -6.613  46.447 -19.296  1.00  0.00     0.069 C 
HETATM   30  C30 UNL     1      -5.926  45.195 -18.759  1.00  0.00     0.158 C 
HETATM   31  O9  UNL     1      -6.892  44.247 -18.292  1.00  0.00    -0.347 OA
HETATM   32  C31 UNL     1      -6.829  42.965 -18.934  1.00  0.00     0.326 C 
HETATM   33  O10 UNL     1      -7.676  42.104 -18.159  1.00  0.00    -0.351 OA
HETATM   34  H7  UNL     1      -5.574  42.961 -16.348  1.00  0.00     0.164 HD
ENDROOT
BRANCH  11  35
HETATM   35  O3  UNL     1      -5.290  41.614 -20.304  1.00  0.00    -0.359 OA
HETATM   36  H10 UNL     1      -4.329  41.631 -20.527  1.00  0.00     0.213 HD
ENDBRANCH  11  35
BRANCH  15  37
HETATM   37  C11 UNL     1      -4.894  46.877 -22.042  1.00  0.00     0.245 C 
HETATM   38  O5  UNL     1      -5.858  47.455 -22.538  1.00  0.00    -0.306 OA
ENDBRANCH  15  37
BRANCH  28  39
HETATM   39  O8  UNL     1      -3.140  51.833 -21.258  1.00  0.00    -0.389 OA
HETATM   40  H35 UNL     1      -3.732  52.235 -20.595  1.00  0.00     0.210 HD
ENDBRANCH  28  39
BRANCH  25  41
HETATM   41  C22 UNL     1       0.344  52.253 -21.862  1.00  0.00    -0.045 A 
HETATM   42  C23 UNL     1       0.220  52.387 -23.185  1.00  0.00     0.087 A 
HETATM   43  C24 UNL     1       0.911  53.620 -23.558  1.00  0.00     0.283 A 
HETATM   44  O6  UNL     1       0.983  54.068 -24.684  1.00  0.00    -0.260 OA
HETATM   45  O7  UNL     1       1.428  54.199 -22.442  1.00  0.00    -0.314 OA
HETATM   46  C25 UNL     1       1.122  53.386 -21.313  1.00  0.00     0.213 A 
ENDBRANCH  25  41
TORSDOF 4
ENDMDL
