MODEL 1
REMARK minimizedAffinity -8.78000069
REMARK  14 active torsions:
REMARK  status: ('A' for Active; 'I' for Inactive)
REMARK    1  A    between atoms: C4_4  and  C5_5 
REMARK    2  A    between atoms: C5_5  and  C6_6 
REMARK    3  A    between atoms: C6_6  and  C7_7 
REMARK    4  A    between atoms: C9_10  and  C10_11 
REMARK    5  A    between atoms: C12_13  and  C13_14 
REMARK    6  A    between atoms: C13_14  and  C14_15 
REMARK    7  A    between atoms: C14_15  and  C15_16 
REMARK    8  A    between atoms: C17_18  and  C18_19 
REMARK    9  A    between atoms: C18_19  and  C19_20 
REMARK   10  A    between atoms: C19_20  and  C20_21 
REMARK   11  A    between atoms: C20_21  and  O2_22 
REMARK   12  A    between atoms: C22_24  and  C24_26 
REMARK   13  A    between atoms: C27_30  and  O4_32 
REMARK   14  A    between atoms: C30_34  and  O5_35 
ROOT
HETATM    1  C15 UNL     1       0.145   7.018  13.210  1.00  0.00    -0.006 C 
HETATM    2  C16 UNL     1       0.307   5.713  14.046  1.00  0.00     0.019 C 
HETATM    3  C17 UNL     1      -0.154   6.696  11.653  1.00  0.00     0.026 C 
HETATM    4  C21 UNL     1       1.091   6.845  10.765  1.00  0.00    -0.066 C 
HETATM    5  C22 UNL     1       1.141   7.428   9.539  1.00  0.00    -0.021 C 
HETATM    6  C23 UNL     1       2.390   7.591   8.714  1.00  0.00     0.052 C 
HETATM    7  C25 UNL     1       2.330   6.322  11.444  1.00  0.00     0.038 C 
HETATM    8  C26 UNL     1       2.678   7.174  12.663  1.00  0.00     0.042 C 
HETATM    9  C27 UNL     1       1.468   7.882  13.334  1.00  0.00     0.062 C 
HETATM   10  C28 UNL     1       1.317   9.311  12.774  1.00  0.00     0.046 C 
ENDROOT
BRANCH   1  11
HETATM   11  C14 UNL     1      -1.132   7.759  13.767  1.00  0.00     0.016 C 
BRANCH  11  12
HETATM   12  C13 UNL     1      -2.417   7.694  12.926  1.00  0.00     0.028 C 
BRANCH  12  13
HETATM   13  C12 UNL     1      -3.490   6.891  13.625  1.00  0.00    -0.022 C 
HETATM   14  C10 UNL     1      -4.545   7.345  14.333  1.00  0.00    -0.059 C 
HETATM   15  C11 UNL     1      -4.858   8.810  14.521  1.00  0.00     0.046 C 
BRANCH  14  16
HETATM   16  C9  UNL     1      -5.582   6.428  14.964  1.00  0.00     0.153 C 
HETATM   17  O1  UNL     1      -6.139   5.555  13.958  1.00  0.00    -0.368 OA
HETATM   18  C7  UNL     1      -7.517   5.264  14.292  1.00  0.00     0.084 C 
HETATM   19  C8  UNL     1      -8.397   5.899  13.210  1.00  0.00     0.049 C 
HETATM   20  C30 UNL     1      -7.746   5.894  15.685  1.00  0.00     0.155 C 
HETATM   21  C29 UNL     1      -6.774   7.052  15.678  1.00  0.00     0.071 C 
BRANCH  18  22
HETATM   22  C6  UNL     1      -7.691   3.732  14.377  1.00  0.00     0.044 C 
BRANCH  22  23
HETATM   23  C5  UNL     1      -7.576   2.963  13.050  1.00  0.00     0.030 C 
BRANCH  23  24
HETATM   24  C4  UNL     1      -6.333   3.305  12.271  1.00  0.00    -0.025 C 
HETATM   25  C2  UNL     1      -5.641   2.522  11.421  1.00  0.00    -0.091 C 
HETATM   26  C1  UNL     1      -4.411   3.049  10.726  1.00  0.00     0.042 C 
HETATM   27  C3  UNL     1      -5.981   1.102  11.065  1.00  0.00     0.042 C 
ENDBRANCH  23  24
ENDBRANCH  22  23
ENDBRANCH  18  22
BRANCH  20  28
HETATM   28  O5  UNL     1      -9.081   6.306  15.920  1.00  0.00    -0.392 OA
HETATM   29  H50 UNL     1      -9.094   6.802  16.758  1.00  0.00     0.210 HD
ENDBRANCH  20  28
ENDBRANCH  14  16
ENDBRANCH  12  13
ENDBRANCH  11  12
ENDBRANCH   1  11
BRANCH   3  30
HETATM   30  C18 UNL     1      -0.876   5.333  11.446  1.00  0.00     0.012 C 
BRANCH  30  31
HETATM   31  C19 UNL     1       0.029   4.097  11.380  1.00  0.00     0.027 C 
BRANCH  31  32
HETATM   32  C20 UNL     1      -0.721   2.783  11.568  1.00  0.00     0.164 C 
BRANCH  32  33
HETATM   33  O2  UNL     1      -0.002   1.720  10.952  1.00  0.00    -0.401 OA
HETATM   34  H34 UNL     1       0.082   1.938  10.007  1.00  0.00     0.209 HD
ENDBRANCH  32  33
ENDBRANCH  31  32
ENDBRANCH  30  31
ENDBRANCH   3  30
BRANCH   9  35
HETATM   35  O4  UNL     1       1.825   8.088  14.711  1.00  0.00    -0.389 OA
HETATM   36  H46 UNL     1       2.191   7.267  15.074  1.00  0.00     0.210 HD
ENDBRANCH   9  35
BRANCH   5  37
HETATM   37  C24 UNL     1      -0.057   8.003   8.846  1.00  0.00     0.265 C 
HETATM   38  O3  UNL     1      -0.337   9.195   8.817  1.00  0.00    -0.302 OA
ENDBRANCH   5  37
TORSDOF 14
ENDMDL
