MODEL 1
REMARK minimizedAffinity -9.6996994
REMARK  5 active torsions:
REMARK  status: ('A' for Active; 'I' for Inactive)
REMARK    1  A    between atoms: C2_2  and  C4_4 
REMARK    2  A    between atoms: C7_7  and  C8_8 
REMARK    3  A    between atoms: C8_8  and  O2_10 
REMARK    4  A    between atoms: C11_13  and  C12_14 
REMARK    5  A    between atoms: C12_14  and  O4_16 
ROOT
HETATM    1  C4  UNL     1       0.480  52.399 -22.899  1.00  0.00     0.019 C 
HETATM    2  C5  UNL     1       0.887  53.498 -23.916  1.00  0.00     0.011 C 
HETATM    3  C6  UNL     1      -0.283  53.650 -24.901  1.00  0.00     0.021 C 
HETATM    4  C7  UNL     1      -1.011  52.303 -24.820  1.00  0.00     0.050 C 
HETATM    5  C9  UNL     1      -2.475  52.324 -25.281  1.00  0.00     0.022 C 
HETATM    6  C10 UNL     1      -3.185  51.005 -24.906  1.00  0.00     0.023 C 
HETATM    7  C11 UNL     1      -3.144  50.671 -23.371  1.00  0.00     0.057 C 
HETATM    8  C13 UNL     1      -1.628  50.710 -22.908  1.00  0.00     0.011 C 
HETATM    9  C14 UNL     1      -1.431  50.315 -21.437  1.00  0.00     0.007 C 
HETATM   10  C15 UNL     1      -2.122  49.002 -21.065  1.00  0.00     0.006 C 
HETATM   11  C16 UNL     1      -3.612  48.967 -21.474  1.00  0.00     0.003 C 
HETATM   12  C17 UNL     1      -4.427  47.771 -20.819  1.00  0.00    -0.035 C 
HETATM   13  C18 UNL     1      -3.738  46.395 -21.045  1.00  0.00     0.016 C 
HETATM   14  C19 UNL     1      -4.439  47.982 -19.266  1.00  0.00     0.017 C 
HETATM   15  C20 UNL     1      -5.605  47.311 -18.566  1.00  0.00     0.080 C 
HETATM   16  C21 UNL     1      -6.940  47.804 -19.079  1.00  0.00     0.135 C 
HETATM   17  O5  UNL     1      -7.941  47.681 -18.365  1.00  0.00    -0.297 OA
HETATM   18  C22 UNL     1      -7.002  48.400 -20.500  1.00  0.00     0.017 C 
HETATM   19  C23 UNL     1      -6.881  49.925 -20.385  1.00  0.00     0.023 C 
HETATM   20  C24 UNL     1      -8.415  48.101 -21.058  1.00  0.00     0.023 C 
HETATM   21  C25 UNL     1      -5.905  47.668 -21.362  1.00  0.00     0.009 C 
HETATM   22  C26 UNL     1      -5.983  47.896 -22.886  1.00  0.00     0.007 C 
HETATM   23  C27 UNL     1      -5.282  49.156 -23.378  1.00  0.00     0.011 C 
HETATM   24  C28 UNL     1      -3.778  49.221 -23.020  1.00  0.00    -0.022 C 
HETATM   25  C29 UNL     1      -3.065  48.127 -23.871  1.00  0.00     0.017 C 
HETATM   26  C30 UNL     1      -0.978  52.060 -23.293  1.00  0.00     0.018 C 
ENDROOT
BRANCH   4  27
HETATM   27  C8  UNL     1      -0.248  51.347 -25.752  1.00  0.00     0.149 C 
HETATM   28  O1  UNL     1       0.960  51.366 -25.942  1.00  0.00    -0.649 OA
BRANCH  27  29
HETATM   29  O2  UNL     1      -0.988  50.413 -26.366  1.00  0.00    -0.776 OA
HETATM   30  H11 UNL     1      -0.331  49.877 -26.857  1.00  0.00     0.167 HD
ENDBRANCH  27  29
ENDBRANCH   4  27
BRANCH   1  31
HETATM   31  C2  UNL     1       0.730  52.854 -21.471  1.00  0.00    -0.088 C 
HETATM   32  C1  UNL     1       1.023  54.135 -21.195  1.00  0.00     0.014 C 
HETATM   33  C3  UNL     1       0.605  51.849 -20.356  1.00  0.00     0.043 C 
ENDBRANCH   1  31
BRANCH   7  34
HETATM   34  C12 UNL     1      -3.947  51.785 -22.639  1.00  0.00     0.149 C 
HETATM   35  O3  UNL     1      -4.787  52.530 -23.121  1.00  0.00    -0.649 OA
BRANCH  34  36
HETATM   36  O4  UNL     1      -3.657  51.914 -21.329  1.00  0.00    -0.776 OA
HETATM   37  H16 UNL     1      -4.245  52.636 -21.024  1.00  0.00     0.167 HD
ENDBRANCH  34  36
ENDBRANCH   7  34
TORSDOF 5
ENDMDL
