MODEL 1
REMARK minimizedAffinity -7.97014236
REMARK CNNscore 0.620457053
REMARK CNNaffinity 7.37810564
REMARK  12 active torsions:
REMARK  status: ('A' for Active; 'I' for Inactive)
REMARK    1  A    between atoms: O1_2  and  C2_3 
REMARK    2  A    between atoms: C2_3  and  C3_4 
REMARK    3  A    between atoms: C2_3  and  C7_8 
REMARK    4  A    between atoms: C7_8  and  C8_9 
REMARK    5  A    between atoms: C8_9  and  C10_11 
REMARK    6  A    between atoms: C28_30  and  O3_31 
REMARK    7  A    between atoms: O3_31  and  C29_32 
REMARK    8  A    between atoms: C30_34  and  C31_35 
REMARK    9  A    between atoms: C31_35  and  O5_36 
REMARK   10  A    between atoms: C32_37  and  O6_38 
REMARK   11  A    between atoms: C33_39  and  O7_40 
REMARK   12  A    between atoms: C34_41  and  O8_42 
ROOT
HETATM    1  C10 UNL     1      -1.441  50.433 -22.905  1.00  0.00    -0.002 C 
HETATM    2  C11 UNL     1      -0.365  51.058 -21.953  1.00  0.00     0.006 C 
HETATM    3  C12 UNL     1      -0.724  50.663 -20.508  1.00  0.00     0.011 C 
HETATM    4  C13 UNL     1      -1.764  49.537 -20.656  1.00  0.00    -0.029 C 
HETATM    5  C14 UNL     1      -0.947  48.231 -20.922  1.00  0.00     0.016 C 
HETATM    6  C15 UNL     1      -2.719  49.352 -19.433  1.00  0.00     0.028 C 
HETATM    7  C16 UNL     1      -1.996  48.953 -18.158  1.00  0.00    -0.021 C 
HETATM    8  C17 UNL     1      -2.428  47.939 -17.384  1.00  0.00     0.008 C 
HETATM    9  C18 UNL     1      -3.666  47.132 -17.757  1.00  0.00     0.092 C 
HETATM   10  O2  UNL     1      -4.756  48.051 -17.508  1.00  0.00    -0.374 OA
HETATM   11  C19 UNL     1      -5.090  48.703 -18.741  1.00  0.00     0.179 C 
HETATM   12  C20 UNL     1      -3.958  48.404 -19.759  1.00  0.00    -0.004 C 
HETATM   13  C21 UNL     1      -4.532  48.582 -21.192  1.00  0.00     0.014 C 
HETATM   14  C22 UNL     1      -3.542  48.922 -22.319  1.00  0.00     0.011 C 
HETATM   15  C23 UNL     1      -2.584  50.052 -21.902  1.00  0.00    -0.032 C 
HETATM   16  C24 UNL     1      -3.426  51.336 -21.610  1.00  0.00     0.016 C 
HETATM   17  C25 UNL     1      -3.615  46.960 -19.308  1.00  0.00     0.036 C 
HETATM   18  C26 UNL     1      -4.518  45.831 -19.803  1.00  0.00     0.011 C 
HETATM   19  C27 UNL     1      -4.134  44.489 -19.169  1.00  0.00     0.033 C 
HETATM   20  C28 UNL     1      -3.396  44.609 -17.827  1.00  0.00     0.136 C 
HETATM   21  C35 UNL     1      -3.923  45.788 -16.963  1.00  0.00     0.014 C 
HETATM   22  C36 UNL     1      -5.427  45.583 -16.629  1.00  0.00     0.021 C 
HETATM   23  C37 UNL     1      -3.216  45.758 -15.582  1.00  0.00     0.021 C 
ENDROOT
BRANCH  20  24
HETATM   24  O3  UNL     1      -3.529  43.390 -17.091  1.00  0.00    -0.352 OA
BRANCH  24  25
HETATM   25  C29 UNL     1      -4.202  42.336 -17.777  1.00  0.00     0.292 C 
HETATM   26  O4  UNL     1      -5.367  41.922 -17.052  1.00  0.00    -0.348 OA
HETATM   27  C30 UNL     1      -5.119  41.013 -15.968  1.00  0.00     0.179 C 
HETATM   28  C32 UNL     1      -4.540  39.683 -16.502  1.00  0.00     0.180 C 
HETATM   29  C33 UNL     1      -3.854  39.843 -17.870  1.00  0.00     0.183 C 
HETATM   30  C34 UNL     1      -3.176  41.201 -17.991  1.00  0.00     0.204 C 
BRANCH  27  31
HETATM   31  C31 UNL     1      -4.280  41.642 -14.840  1.00  0.00     0.198 C 
BRANCH  31  32
HETATM   32  O5  UNL     1      -4.838  42.879 -14.402  1.00  0.00    -0.398 OA
HETATM   33  H48 UNL     1      -5.589  42.685 -13.816  1.00  0.00     0.209 HD
ENDBRANCH  31  32
ENDBRANCH  27  31
BRANCH  28  34
HETATM   34  O6  UNL     1      -5.603  38.717 -16.662  1.00  0.00    -0.390 OA
HETATM   35  H50 UNL     1      -6.320  39.139 -17.171  1.00  0.00     0.210 HD
ENDBRANCH  28  34
BRANCH  29  36
HETATM   36  O7  UNL     1      -2.851  38.818 -18.024  1.00  0.00    -0.390 OA
HETATM   37  H52 UNL     1      -3.019  38.374 -18.879  1.00  0.00     0.210 HD
ENDBRANCH  29  36
BRANCH  30  38
HETATM   38  O8  UNL     1      -2.572  41.305 -19.295  1.00  0.00    -0.388 OA
HETATM   39  H54 UNL     1      -1.806  40.700 -19.276  1.00  0.00     0.210 HD
ENDBRANCH  30  38
ENDBRANCH  24  25
ENDBRANCH  20  24
BRANCH   1  40
HETATM   40  C8  UNL     1      -1.764  51.378 -24.102  1.00  0.00    -0.011 C 
HETATM   41  C9  UNL     1      -2.544  52.627 -23.664  1.00  0.00     0.010 C 
BRANCH  40  42
HETATM   42  C7  UNL     1      -2.566  50.657 -25.227  1.00  0.00     0.040 C 
BRANCH  42  43
HETATM   43  C2  UNL     1      -1.808  50.662 -26.571  1.00  0.00     0.144 C 
BRANCH  43  44
HETATM   44  O1  UNL     1      -2.235  49.559 -27.372  1.00  0.00    -0.387 OA
HETATM   45  C1  UNL     1      -3.618  49.272 -27.232  1.00  0.00     0.202 C 
ENDBRANCH  43  44
BRANCH  43  46
HETATM   46  C3  UNL     1      -0.316  50.647 -26.337  1.00  0.00     0.007 C 
HETATM   47  C4  UNL     1       0.660  51.326 -26.978  1.00  0.00    -0.089 C 
HETATM   48  C5  UNL     1       0.446  52.213 -28.173  1.00  0.00     0.042 C 
HETATM   49  C6  UNL     1       2.099  51.225 -26.536  1.00  0.00     0.042 C 
ENDBRANCH  43  46
ENDBRANCH  42  43
ENDBRANCH  40  42
ENDBRANCH   1  40
TORSDOF 12
ENDMDL
