MODEL 1
REMARK minimizedAffinity -8.50912857
REMARK CNNscore 0.382073194
REMARK CNNaffinity 6.24441147
REMARK  10 active torsions:
REMARK  status: ('A' for Active; 'I' for Inactive)
REMARK    1  A    between atoms: C3_3  and  O1_4 
REMARK    2  A    between atoms: N1_14  and  O2_16 
REMARK    3  A    between atoms: O2_16  and  C13_17 
REMARK    4  A    between atoms: C13_17  and  C14_18 
REMARK       I    between atoms: C14_18  and  N2_20 
REMARK    5  A    between atoms: N2_20  and  C15_21 
REMARK    6  A    between atoms: C15_21  and  C16_22 
REMARK    7  A    between atoms: C15_21  and  C19_29 
REMARK       I    between atoms: C16_22  and  N3_24 
REMARK    8  A    between atoms: N3_24  and  C17_25 
REMARK    9  A    between atoms: C17_25  and  C18_26 
REMARK   10  A    between atoms: C18_26  and  O6_28 
ROOT
HETATM    1  C1  UNL     1      -0.196  53.786 -27.776  1.00  0.00     0.015 C 
HETATM    2  C2  UNL     1      -1.016  53.012 -27.359  1.00  0.00    -0.078 C 
HETATM    3  C3  UNL     1      -2.035  52.101 -26.811  1.00  0.00     0.128 C 
HETATM    4  C4  UNL     1      -2.704  51.257 -27.895  1.00  0.00     0.052 C 
HETATM    5  C5  UNL     1      -3.431  50.187 -27.090  1.00  0.00     0.010 C 
HETATM    6  C6  UNL     1      -2.504  49.850 -25.900  1.00  0.00     0.002 C 
HETATM    7  C7  UNL     1      -3.297  49.547 -24.609  1.00  0.00    -0.004 C 
HETATM    8  C8  UNL     1      -2.511  48.619 -23.653  1.00  0.00     0.010 C 
HETATM    9  C9  UNL     1      -2.914  48.754 -22.180  1.00  0.00     0.035 C 
HETATM   10  C10 UNL     1      -4.360  49.150 -22.053  1.00  0.00    -0.069 C 
HETATM   11  C11 UNL     1      -5.248  48.324 -21.476  1.00  0.00     0.030 C 
HETATM   12  C12 UNL     1      -6.694  48.651 -21.424  1.00  0.00     0.032 C 
HETATM   13  N1  UNL     1      -7.453  47.914 -20.664  1.00  0.00    -0.271 N 
ATOM     14  H1  UNL     1      -7.120  47.111 -20.129  1.00  0.00     0.194 HD
HETATM   15  C22 UNL     1      -7.206  49.831 -22.232  1.00  0.00     0.060 C 
HETATM   16  C23 UNL     1      -6.191  50.318 -23.264  1.00  0.00     0.020 C 
HETATM   17  C24 UNL     1      -4.750  50.480 -22.697  1.00  0.00    -0.016 C 
HETATM   18  C25 UNL     1      -4.769  51.592 -21.624  1.00  0.00     0.020 C 
HETATM   19  C26 UNL     1      -3.773  50.830 -23.894  1.00  0.00     0.002 C 
HETATM   20  C27 UNL     1      -2.579  51.740 -23.529  1.00  0.00     0.007 C 
HETATM   21  C28 UNL     1      -1.314  51.574 -24.377  1.00  0.00     0.014 C 
HETATM   22  C29 UNL     1      -1.486  51.033 -25.808  1.00  0.00     0.003 C 
HETATM   23  C30 UNL     1      -0.101  50.491 -26.266  1.00  0.00     0.020 C 
ENDROOT
BRANCH   3  24
HETATM   24  O1  UNL     1      -3.049  52.900 -26.204  1.00  0.00    -0.377 OA
HETATM   25  H2  UNL     1      -3.257  53.616 -26.828  1.00  0.00     0.211 HD
ENDBRANCH   3  24
BRANCH  13  26
HETATM   26  O2  UNL     1      -8.782  48.359 -20.672  1.00  0.00    -0.271 OA
BRANCH  26  27
HETATM   27  C13 UNL     1      -9.337  48.137 -19.380  1.00  0.00     0.303 C 
BRANCH  27  28
HETATM   28  C14 UNL     1     -10.611  47.317 -19.512  1.00  0.00     0.244 C 
HETATM   29  O3  UNL     1     -10.646  46.219 -20.064  1.00  0.00    -0.271 OA
HETATM   30  N2  UNL     1     -11.749  47.937 -19.040  1.00  0.00    -0.346 N 
HETATM   31  H16 UNL     1     -11.655  48.883 -18.685  1.00  0.00     0.163 HD
BRANCH  30  32
HETATM   32  C15 UNL     1     -13.062  47.277 -18.982  1.00  0.00     0.180 C 
BRANCH  32  33
HETATM   33  C16 UNL     1     -13.894  47.467 -20.283  1.00  0.00     0.241 C 
HETATM   34  O4  UNL     1     -13.769  48.434 -21.033  1.00  0.00    -0.271 OA
HETATM   35  N3  UNL     1     -14.891  46.537 -20.473  1.00  0.00    -0.349 N 
HETATM   36  H18 UNL     1     -15.128  45.935 -19.689  1.00  0.00     0.163 HD
BRANCH  35  37
HETATM   37  C17 UNL     1     -15.879  46.679 -21.526  1.00  0.00     0.232 C 
BRANCH  37  38
HETATM   38  C18 UNL     1     -17.226  46.173 -21.047  1.00  0.00     0.158 C 
HETATM   39  O5  UNL     1     -18.325  46.560 -21.415  1.00  0.00    -0.649 OA
BRANCH  38  40
HETATM   40  O6  UNL     1     -17.118  45.188 -20.133  1.00  0.00    -0.775 OA
HETATM   41  H21 UNL     1     -18.044  44.951 -19.923  1.00  0.00     0.167 HD
ENDBRANCH  38  40
ENDBRANCH  37  38
ENDBRANCH  35  37
ENDBRANCH  32  33
BRANCH  32  42
HETATM   42  C19 UNL     1     -13.801  47.704 -17.691  1.00  0.00     0.009 C 
HETATM   43  C20 UNL     1     -14.960  48.672 -17.948  1.00  0.00     0.012 C 
HETATM   44  C21 UNL     1     -14.280  46.507 -16.864  1.00  0.00     0.012 C 
ENDBRANCH  32  42
ENDBRANCH  30  32
ENDBRANCH  27  28
ENDBRANCH  26  27
ENDBRANCH  13  26
TORSDOF 10
ENDMDL
