MODEL 1
REMARK minimizedAffinity -5.61958075
REMARK  7 active torsions:
REMARK  status: ('A' for Active; 'I' for Inactive)
REMARK    1  A    between atoms: S1_2  and  C2_4 
REMARK    2  A    between atoms: C2_4  and  C3_5 
REMARK    3  A    between atoms: C3_5  and  N1_6 
REMARK       I    between atoms: N1_6  and  C4_7 
REMARK       I    between atoms: C4_7  and  N2_9 
REMARK    4  A    between atoms: N2_9  and  C5_10 
REMARK    5  A    between atoms: N2_9  and  N3_13 
REMARK    6  A    between atoms: C5_10  and  C6_11 
REMARK    7  A    between atoms: N3_13  and  O3_15 
ROOT
HETATM    1  N1  UNL     1       7.224  63.572 -34.562  1.00  0.00    -0.341 N 
HETATM    2  C4  UNL     1       5.896  63.157 -34.566  1.00  0.00     0.338 C 
HETATM    3  O2  UNL     1       5.623  61.969 -34.716  1.00  0.00    -0.245 OA
HETATM    4  N2  UNL     1       4.972  64.189 -34.357  1.00  0.00    -0.222 N 
HETATM    5  H8  UNL     1       7.381  64.455 -35.026  1.00  0.00     0.164 HD
ENDROOT
BRANCH   1   6
HETATM    6  C3  UNL     1       8.280  62.602 -34.833  1.00  0.00     0.137 C 
BRANCH   6   7
HETATM    7  C2  UNL     1       8.877  61.989 -33.570  1.00  0.00     0.128 C 
BRANCH   7   8
HETATM    8  S1  UNL     1      10.402  62.844 -33.055  1.00  0.00     0.012 S 
HETATM    9  C1  UNL     1      10.923  63.326 -34.718  1.00  0.00     0.127 C 
HETATM   10  O1  UNL     1      10.003  64.084 -32.313  1.00  0.00    -0.258 OA
ENDBRANCH   7   8
ENDBRANCH   6   7
ENDBRANCH   1   6
BRANCH   4  11
HETATM   11  C5  UNL     1       5.315  65.569 -34.011  1.00  0.00     0.171 C 
BRANCH  11  12
HETATM   12  C6  UNL     1       5.568  65.725 -32.516  1.00  0.00     0.136 C 
HETATM   13 CL1  UNL     1       4.318  64.867 -31.587  1.00  0.00    -0.129 Cl
ENDBRANCH  11  12
ENDBRANCH   4  11
BRANCH   4  14
HETATM   14  N3  UNL     1       3.489  63.940 -34.457  1.00  0.00    -0.204 N 
ATOM     15  H3  UNL     1       2.857  64.581 -34.936  1.00  0.00     0.216 HD
BRANCH  14  16
HETATM   16  O3  UNL     1       3.098  62.904 -33.916  1.00  0.00    -0.274 OA
ATOM     17  H3  UNL     1       2.162  62.748 -33.979  1.00  0.00     0.246 HD
ENDBRANCH  14  16
ENDBRANCH   4  14
TORSDOF 7
ENDMDL
