MODEL 1
REMARK minimizedAffinity -9.67428589
REMARK  7 active torsions:
REMARK  status: ('A' for Active; 'I' for Inactive)
REMARK    1  A    between atoms: C2_2  and  C3_3 
REMARK    2  A    between atoms: C4_5  and  C5_6 
REMARK    3  A    between atoms: C5_6  and  C6_7 
REMARK    4  A    between atoms: C6_7  and  C7_8 
REMARK    5  A    between atoms: C7_8  and  C9_10 
REMARK    6  A    between atoms: C11_12  and  O2_13 
REMARK    7  A    between atoms: C30_33  and  O4_34 
ROOT
HETATM    1  C9  UNL     1      -0.567  50.183 -20.608  1.00  0.00     0.001 C 
HETATM    2  C10 UNL     1      -0.976  49.434 -19.307  1.00  0.00     0.038 C 
HETATM    3  C11 UNL     1      -2.241  48.611 -19.624  1.00  0.00     0.132 C 
HETATM    4  C12 UNL     1      -2.324  48.583 -21.173  1.00  0.00     0.016 C 
HETATM    5  C13 UNL     1      -1.361  47.475 -21.708  1.00  0.00     0.023 C 
HETATM    6  C14 UNL     1      -3.681  48.323 -21.849  1.00  0.00    -0.037 C 
HETATM    7  C15 UNL     1      -3.950  48.877 -23.064  1.00  0.00    -0.065 C 
HETATM    8  C16 UNL     1      -2.923  49.774 -23.776  1.00  0.00     0.036 C 
HETATM    9  C17 UNL     1      -1.650  50.168 -23.002  1.00  0.00     0.015 C 
HETATM   10  C18 UNL     1      -1.852  50.063 -21.486  1.00  0.00    -0.026 C 
HETATM   11  C19 UNL     1      -2.881  51.153 -21.044  1.00  0.00     0.016 C 
HETATM   12  C20 UNL     1      -5.314  48.687 -23.787  1.00  0.00    -0.015 C 
HETATM   13  C21 UNL     1      -6.079  50.030 -23.657  1.00  0.00     0.020 C 
HETATM   14  C22 UNL     1      -5.092  48.369 -25.292  1.00  0.00     0.021 C 
HETATM   15  C23 UNL     1      -6.248  47.664 -26.002  1.00  0.00     0.080 C 
HETATM   16  C24 UNL     1      -7.554  47.740 -25.246  1.00  0.00     0.135 C 
HETATM   17  O3  UNL     1      -8.583  48.099 -25.819  1.00  0.00    -0.297 OA
HETATM   18  C25 UNL     1      -7.546  47.270 -23.785  1.00  0.00     0.018 C 
HETATM   19  C26 UNL     1      -7.882  45.764 -23.805  1.00  0.00     0.023 C 
HETATM   20  C27 UNL     1      -8.673  47.983 -23.011  1.00  0.00     0.023 C 
HETATM   21  C28 UNL     1      -6.118  47.485 -23.176  1.00  0.00     0.016 C 
HETATM   22  C29 UNL     1      -6.101  47.543 -21.641  1.00  0.00     0.043 C 
HETATM   23  C30 UNL     1      -4.669  47.441 -21.114  1.00  0.00     0.148 C 
ENDROOT
BRANCH   1  24
HETATM   24  C7  UNL     1       0.040  51.584 -20.314  1.00  0.00    -0.013 C 
HETATM   25  C8  UNL     1      -0.452  52.187 -18.993  1.00  0.00     0.010 C 
BRANCH  24  26
HETATM   26  C6  UNL     1      -0.145  52.593 -21.483  1.00  0.00     0.008 C 
BRANCH  26  27
HETATM   27  C5  UNL     1       0.781  52.480 -22.701  1.00  0.00     0.028 C 
BRANCH  27  28
HETATM   28  C4  UNL     1       0.308  53.192 -23.934  1.00  0.00    -0.017 C 
HETATM   29  C2  UNL     1       0.582  52.860 -25.208  1.00  0.00    -0.028 C 
HETATM   30  C1  UNL     1       1.459  51.740 -25.671  1.00  0.00     0.051 C 
BRANCH  29  31
HETATM   31  C3  UNL     1      -0.022  53.691 -26.295  1.00  0.00     0.265 C 
HETATM   32  O1  UNL     1       0.186  54.889 -26.434  1.00  0.00    -0.302 OA
ENDBRANCH  29  31
ENDBRANCH  27  28
ENDBRANCH  26  27
ENDBRANCH  24  26
ENDBRANCH   1  24
BRANCH   3  33
HETATM   33  O2  UNL     1      -2.142  47.323 -19.037  1.00  0.00    -0.394 OA
HETATM   34  H18 UNL     1      -2.117  47.436 -18.073  1.00  0.00     0.210 HD
ENDBRANCH   3  33
BRANCH  23  35
HETATM   35  O4  UNL     1      -4.276  46.076 -21.227  1.00  0.00    -0.391 OA
HETATM   36  H46 UNL     1      -3.671  46.002 -21.982  1.00  0.00     0.210 HD
ENDBRANCH  23  35
TORSDOF 7
ENDMDL
