MODEL 1
REMARK minimizedAffinity -9.29787636
REMARK  10 active torsions:
REMARK  status: ('A' for Active; 'I' for Inactive)
REMARK    1  A    between atoms: C2_2  and  C3_3 
REMARK    2  A    between atoms: C5_5  and  C6_6 
REMARK    3  A    between atoms: C6_6  and  C7_7 
REMARK    4  A    between atoms: C13_13  and  C15_15 
REMARK    5  A    between atoms: C15_15  and  O1_16 
REMARK    6  A    between atoms: O1_16  and  C16_17 
REMARK    7  A    between atoms: C17_19  and  C18_20 
REMARK    8  A    between atoms: C18_20  and  O3_21 
REMARK    9  A    between atoms: C19_22  and  O4_23 
REMARK   10  A    between atoms: C20_24  and  O5_25 
ROOT
HETATM    1  C7  UNL     1      -2.682  50.280 -24.853  1.00  0.00     0.025 C 
HETATM    2  C8  UNL     1      -3.867  51.033 -24.236  1.00  0.00    -0.084 C 
HETATM    3  C9  UNL     1      -5.102  50.539 -24.033  1.00  0.00     0.015 C 
HETATM    4  C10 UNL     1      -3.573  52.437 -23.765  1.00  0.00     0.034 C 
HETATM    5  C11 UNL     1      -2.079  52.749 -23.758  1.00  0.00     0.010 C 
HETATM    6  C12 UNL     1      -1.480  52.592 -25.171  1.00  0.00     0.005 C 
HETATM    7  C13 UNL     1       0.031  53.018 -25.251  1.00  0.00    -0.018 C 
HETATM    8  C14 UNL     1       0.149  54.556 -25.075  1.00  0.00     0.018 C 
HETATM    9  C21 UNL     1       0.547  52.698 -26.671  1.00  0.00     0.012 C 
HETATM   10  C22 UNL     1       0.482  51.225 -27.042  1.00  0.00     0.002 C 
HETATM   11  C23 UNL     1      -0.580  50.418 -26.303  1.00  0.00     0.010 C 
HETATM   12  C24 UNL     1      -1.846  51.195 -25.856  1.00  0.00    -0.032 C 
HETATM   13  C25 UNL     1      -2.665  51.520 -27.136  1.00  0.00     0.016 C 
ENDROOT
BRANCH   7  14
HETATM   14  C15 UNL     1       0.914  52.360 -24.155  1.00  0.00     0.180 C 
BRANCH  14  15
HETATM   15  O1  UNL     1       0.107  51.985 -23.038  1.00  0.00    -0.358 OA
BRANCH  15  16
HETATM   16  C16 UNL     1       0.817  52.061 -21.803  1.00  0.00     0.291 C 
HETATM   17  O2  UNL     1       0.274  51.147 -20.828  1.00  0.00    -0.348 OA
HETATM   18  C17 UNL     1      -0.183  51.928 -19.716  1.00  0.00     0.179 C 
HETATM   19  C19 UNL     1       0.639  53.206 -19.743  1.00  0.00     0.182 C 
HETATM   20  C20 UNL     1       0.683  53.480 -21.229  1.00  0.00     0.204 C 
BRANCH  18  21
HETATM   21  C18 UNL     1      -0.022  51.158 -18.410  1.00  0.00     0.198 C 
BRANCH  21  22
HETATM   22  O3  UNL     1       0.752  51.911 -17.478  1.00  0.00    -0.398 OA
HETATM   23  H27 UNL     1       0.827  51.364 -16.674  1.00  0.00     0.209 HD
ENDBRANCH  21  22
ENDBRANCH  18  21
BRANCH  19  24
HETATM   24  O4  UNL     1       0.051  54.283 -19.023  1.00  0.00    -0.390 OA
HETATM   25  H29 UNL     1      -0.178  53.920 -18.140  1.00  0.00     0.210 HD
ENDBRANCH  19  24
BRANCH  20  26
HETATM   26  O5  UNL     1       1.776  54.334 -21.562  1.00  0.00    -0.388 OA
HETATM   27  H31 UNL     1       1.634  55.156 -21.052  1.00  0.00     0.210 HD
ENDBRANCH  20  26
ENDBRANCH  15  16
ENDBRANCH  14  15
ENDBRANCH   7  14
BRANCH   1  28
HETATM   28  C6  UNL     1      -2.973  48.814 -25.321  1.00  0.00     0.037 C 
BRANCH  28  29
HETATM   29  C5  UNL     1      -3.441  48.612 -26.740  1.00  0.00    -0.019 C 
HETATM   30  C3  UNL     1      -4.659  48.210 -27.162  1.00  0.00    -0.067 C 
HETATM   31  C4  UNL     1      -5.818  47.931 -26.239  1.00  0.00     0.048 C 
BRANCH  30  32
HETATM   32  C2  UNL     1      -4.877  48.044 -28.597  1.00  0.00    -0.004 C 
HETATM   33  C1  UNL     1      -6.056  48.049 -29.234  1.00  0.00     0.012 C 
ENDBRANCH  30  32
ENDBRANCH  28  29
ENDBRANCH   1  28
TORSDOF 10
ENDMDL
