MODEL 1
REMARK minimizedAffinity -7.59721994
REMARK CNNscore 0.359143555
REMARK CNNaffinity 6.70020914
REMARK  13 active torsions:
REMARK  status: ('A' for Active; 'I' for Inactive)
REMARK    1  A    between atoms: C3_3  and  O1_4 
REMARK    2  A    between atoms: N1_14  and  O2_16 
REMARK    3  A    between atoms: O2_16  and  C13_17 
REMARK    4  A    between atoms: C13_17  and  C14_18 
REMARK       I    between atoms: C14_18  and  N2_20 
REMARK    5  A    between atoms: N2_20  and  C15_21 
REMARK    6  A    between atoms: C15_21  and  C16_22 
REMARK    7  A    between atoms: C15_21  and  C21_32 
REMARK       I    between atoms: C16_22  and  N3_24 
REMARK    8  A    between atoms: N3_24  and  C17_25 
REMARK    9  A    between atoms: C17_25  and  C18_26 
REMARK   10  A    between atoms: C17_25  and  C19_28 
REMARK   11  A    between atoms: C18_26  and  S1_27 
REMARK   12  A    between atoms: C19_28  and  C20_29 
REMARK   13  A    between atoms: C20_29  and  O6_31 
ROOT
HETATM    1  C1  UNL     1      -1.211  16.074  16.907  1.00  0.00     0.015 C 
HETATM    2  C2  UNL     1      -1.647  14.963  17.045  1.00  0.00    -0.078 C 
HETATM    3  C3  UNL     1      -2.170  13.597  17.223  1.00  0.00     0.128 C 
HETATM    4  C4  UNL     1      -3.368  13.567  18.169  1.00  0.00     0.052 C 
HETATM    5  C5  UNL     1      -3.946  12.172  17.947  1.00  0.00     0.010 C 
HETATM    6  C6  UNL     1      -3.687  11.835  16.462  1.00  0.00     0.002 C 
HETATM    7  C7  UNL     1      -3.379  10.358  16.138  1.00  0.00    -0.004 C 
HETATM    8  C8  UNL     1      -2.440   9.609  17.095  1.00  0.00     0.010 C 
HETATM    9  C9  UNL     1      -2.328   8.128  16.727  1.00  0.00     0.035 C 
HETATM   10  C10 UNL     1      -2.054   7.846  15.269  1.00  0.00    -0.069 C 
HETATM   11  C11 UNL     1      -1.270   6.803  14.931  1.00  0.00     0.030 C 
HETATM   12  C12 UNL     1      -1.105   6.352  13.521  1.00  0.00     0.032 C 
HETATM   13  N1  UNL     1      -0.468   5.235  13.305  1.00  0.00    -0.271 N 
ATOM     14  H1  UNL     1      -0.056   4.658  14.038  1.00  0.00     0.194 HD
HETATM   15  C24 UNL     1      -1.767   7.162  12.422  1.00  0.00     0.060 C 
HETATM   16  C25 UNL     1      -2.030   8.592  12.871  1.00  0.00     0.020 C 
HETATM   17  C26 UNL     1      -2.776   8.707  14.232  1.00  0.00    -0.016 C 
HETATM   18  C27 UNL     1      -4.213   8.146  14.059  1.00  0.00     0.020 C 
HETATM   19  C28 UNL     1      -2.873  10.222  14.680  1.00  0.00     0.002 C 
HETATM   20  C29 UNL     1      -1.552  10.993  14.535  1.00  0.00     0.007 C 
HETATM   21  C30 UNL     1      -1.572  12.451  14.994  1.00  0.00     0.014 C 
HETATM   22  C31 UNL     1      -2.713  12.928  15.919  1.00  0.00     0.003 C 
HETATM   23  C32 UNL     1      -3.581  13.928  15.090  1.00  0.00     0.020 C 
ENDROOT
BRANCH   3  24
HETATM   24  O1  UNL     1      -1.151  12.770  17.807  1.00  0.00    -0.377 OA
HETATM   25  H2  UNL     1      -0.462  13.362  18.154  1.00  0.00     0.211 HD
ENDBRANCH   3  24
BRANCH  13  26
HETATM   26  O2  UNL     1      -0.418   4.927  11.936  1.00  0.00    -0.271 OA
BRANCH  26  27
HETATM   27  C13 UNL     1       0.932   4.745  11.526  1.00  0.00     0.303 C 
BRANCH  27  28
HETATM   28  C14 UNL     1       1.505   5.991  10.861  1.00  0.00     0.244 C 
HETATM   29  O3  UNL     1       1.021   7.103  11.047  1.00  0.00    -0.271 OA
HETATM   30  N2  UNL     1       2.523   5.729   9.970  1.00  0.00    -0.346 N 
HETATM   31  H16 UNL     1       2.967   4.820  10.092  1.00  0.00     0.163 HD
BRANCH  30  32
HETATM   32  C15 UNL     1       3.296   6.762   9.272  1.00  0.00     0.180 C 
BRANCH  32  33
HETATM   33  C16 UNL     1       4.148   7.581  10.281  1.00  0.00     0.241 C 
HETATM   34  O4  UNL     1       4.751   8.610   9.978  1.00  0.00    -0.271 OA
HETATM   35  N3  UNL     1       4.110   7.119  11.588  1.00  0.00    -0.353 N 
HETATM   36  H18 UNL     1       3.722   6.201  11.760  1.00  0.00     0.163 HD
BRANCH  35  37
HETATM   37  C17 UNL     1       4.888   7.752  12.668  1.00  0.00     0.103 C 
BRANCH  37  38
HETATM   38  C18 UNL     1       4.019   7.903  13.931  1.00  0.00     0.096 C 
BRANCH  38  39
HETATM   39  S1  UNL     1       4.084   9.583  14.635  1.00  0.00    -0.180 SA
HETATM   40  H22 UNL     1       4.531  10.196  13.529  1.00  0.00     0.101 HD
ENDBRANCH  38  39
ENDBRANCH  37  38
BRANCH  37  41
HETATM   41  C19 UNL     1       6.132   6.923  13.015  1.00  0.00     0.136 C 
BRANCH  41  42
HETATM   42  C20 UNL     1       7.373   7.437  12.348  1.00  0.00     0.141 C 
HETATM   43  O5  UNL     1       8.349   7.890  12.921  1.00  0.00    -0.650 OA
BRANCH  42  44
HETATM   44  O6  UNL     1       7.301   7.399  11.009  1.00  0.00    -0.776 OA
HETATM   45  H25 UNL     1       8.221   7.600  10.723  1.00  0.00     0.167 HD
ENDBRANCH  42  44
ENDBRANCH  41  42
ENDBRANCH  37  41
ENDBRANCH  35  37
ENDBRANCH  32  33
BRANCH  32  46
HETATM   46  C21 UNL     1       2.460   7.564   8.233  1.00  0.00     0.009 C 
HETATM   47  C22 UNL     1       2.063   6.690   7.036  1.00  0.00     0.012 C 
HETATM   48  C23 UNL     1       3.115   8.855   7.726  1.00  0.00     0.012 C 
ENDBRANCH  32  46
ENDBRANCH  30  32
ENDBRANCH  27  28
ENDBRANCH  26  27
ENDBRANCH  13  26
TORSDOF 13
ENDMDL
