MODEL 1
REMARK minimizedAffinity -9.6391201
REMARK  10 active torsions:
REMARK  status: ('A' for Active; 'I' for Inactive)
REMARK    1  A    between atoms: C2_2  and  C3_3 
REMARK    2  A    between atoms: C3_3  and  N1_4 
REMARK    3  A    between atoms: N1_4  and  C4_5 
REMARK    4  A    between atoms: C9_12  and  C11_14 
REMARK    5  A    between atoms: C11_14  and  O1_15 
REMARK    6  A    between atoms: C12_16  and  O2_17 
REMARK    7  A    between atoms: C17_22  and  C18_23 
REMARK    8  A    between atoms: C18_23  and  C19_24 
REMARK       I    between atoms: C19_24  and  N3_26 
REMARK    9  A    between atoms: N3_26  and  C20_27 
REMARK   10  A    between atoms: C20_27  and  C22_29 
ROOT
HETATM    1  C4  UNL     1       0.970  52.934 -19.999  1.00  0.00     0.145 A 
HETATM    2  N2  UNL     1       0.170  51.938 -20.309  1.00  0.00    -0.339 N 
ATOM      3  H2  UNL     1      -0.179  51.244 -19.649  1.00  0.00     0.168 HD
HETATM    4  C5  UNL     1      -0.128  51.964 -21.658  1.00  0.00     0.030 A 
HETATM    5  C6  UNL     1       0.490  52.975 -22.366  1.00  0.00     0.009 A 
HETATM    6  C7  UNL     1       0.364  53.221 -23.837  1.00  0.00     0.054 C 
HETATM    7  C8  UNL     1      -0.222  51.950 -24.509  1.00  0.00     0.012 C 
HETATM    8  C9  UNL     1      -0.282  51.924 -26.095  1.00  0.00     0.008 C 
HETATM    9  C10 UNL     1       0.495  50.661 -26.579  1.00  0.00     0.020 C 
HETATM   10  C12 UNL     1      -1.732  51.808 -26.639  1.00  0.00     0.128 C 
HETATM   11  C13 UNL     1      -2.573  50.707 -25.985  1.00  0.00     0.033 C 
HETATM   12  C14 UNL     1      -2.182  50.335 -24.552  1.00  0.00     0.013 C 
HETATM   13  C15 UNL     1      -1.525  51.462 -23.732  1.00  0.00    -0.030 C 
HETATM   14  C16 UNL     1      -2.559  52.601 -23.506  1.00  0.00     0.016 C 
HETATM   15  C17 UNL     1      -1.035  50.920 -22.297  1.00  0.00     0.054 C 
HETATM   16  S1  UNL     1       1.423  53.943 -21.325  1.00  0.00    -0.057 SA
ENDROOT
BRANCH  15  17
HETATM   17  C18 UNL     1      -2.162  50.493 -21.332  1.00  0.00     0.114 C 
BRANCH  17  18
HETATM   18  C19 UNL     1      -2.769  49.142 -21.659  1.00  0.00     0.218 C 
HETATM   19  O3  UNL     1      -2.112  48.160 -21.986  1.00  0.00    -0.274 OA
HETATM   20  N3  UNL     1      -4.142  49.134 -21.529  1.00  0.00    -0.353 N 
HETATM   21  H28 UNL     1      -4.564  49.890 -21.007  1.00  0.00     0.163 HD
BRANCH  20  22
HETATM   22  C20 UNL     1      -4.914  47.905 -21.643  1.00  0.00     0.113 C 
HETATM   23  C21 UNL     1      -4.039  46.707 -21.269  1.00  0.00     0.037 C 
BRANCH  22  24
HETATM   24  C22 UNL     1      -5.522  47.816 -23.032  1.00  0.00    -0.036 A 
HETATM   25  C23 UNL     1      -6.772  47.193 -23.191  1.00  0.00     0.009 A 
HETATM   26  C24 UNL     1      -7.375  47.103 -24.446  1.00  0.00     0.001 A 
HETATM   27  C25 UNL     1      -6.745  47.645 -25.562  1.00  0.00     0.000 A 
HETATM   28  C26 UNL     1      -5.515  48.285 -25.421  1.00  0.00     0.001 A 
HETATM   29  C27 UNL     1      -4.909  48.374 -24.165  1.00  0.00     0.009 A 
ENDBRANCH  22  24
ENDBRANCH  20  22
ENDBRANCH  17  18
ENDBRANCH  15  17
BRANCH   1  30
HETATM   30  N1  UNL     1       1.443  53.196 -18.760  1.00  0.00    -0.367 N 
HETATM   31  H6  UNL     1       2.406  53.506 -18.715  1.00  0.00     0.161 HD
BRANCH  30  32
HETATM   32  C3  UNL     1       1.048  52.313 -17.686  1.00  0.00     0.148 C 
BRANCH  32  33
HETATM   33  C2  UNL     1       1.927  52.634 -16.514  1.00  0.00    -0.018 C 
HETATM   34  C1  UNL     1       3.267  52.621 -16.536  1.00  0.00     0.008 C 
ENDBRANCH  32  33
ENDBRANCH  30  32
ENDBRANCH   1  30
BRANCH   8  35
HETATM   35  C11 UNL     1       0.445  53.117 -26.775  1.00  0.00     0.176 C 
BRANCH  35  36
HETATM   36  O1  UNL     1      -0.148  54.360 -26.420  1.00  0.00    -0.400 OA
HETATM   37  H15 UNL     1       0.365  55.058 -26.871  1.00  0.00     0.209 HD
ENDBRANCH  35  36
ENDBRANCH   8  35
BRANCH  10  38
HETATM   38  O2  UNL     1      -2.468  53.028 -26.546  1.00  0.00    -0.395 OA
HETATM   39  H17 UNL     1      -1.824  53.767 -26.529  1.00  0.00     0.210 HD
ENDBRANCH  10  38
TORSDOF 10
ENDMDL
