MODEL 1
REMARK minimizedAffinity -8.50848579
REMARK CNNscore 0.858462393
REMARK CNNaffinity 7.81716681
REMARK  11 active torsions:
REMARK  status: ('A' for Active; 'I' for Inactive)
REMARK    1  A    between atoms: C2_2  and  O2_4 
REMARK    2  A    between atoms: O2_4  and  C3_5 
REMARK    3  A    between atoms: C4_6  and  O3_7 
REMARK    4  A    between atoms: O3_7  and  C5_8 
REMARK    5  A    between atoms: C15_18  and  C16_19 
REMARK    6  A    between atoms: C20_23  and  C21_24 
REMARK    7  A    between atoms: C21_24  and  O4_27 
REMARK    8  A    between atoms: C24_29  and  O6_30 
REMARK    9  A    between atoms: C30_36  and  O7_37 
REMARK   10  A    between atoms: C36_44  and  O9_45 
REMARK   11  A    between atoms: C37_46  and  O10_47 
ROOT
HETATM    1  C5  UNL     1      -4.828  45.107 -17.344  1.00  0.00     0.133 C 
HETATM    2  C6  UNL     1      -3.505  44.958 -18.104  1.00  0.00     0.034 C 
HETATM    3  C7  UNL     1      -3.087  46.230 -18.811  1.00  0.00     0.013 C 
HETATM    4  C8  UNL     1      -4.159  46.738 -19.735  1.00  0.00    -0.025 A 
HETATM    5  C9  UNL     1      -4.168  46.409 -21.200  1.00  0.00     0.021 A 
HETATM    6  C10 UNL     1      -3.748  47.808 -20.762  1.00  0.00    -0.027 A 
HETATM    7  C11 UNL     1      -2.295  48.138 -21.074  1.00  0.00     0.011 C 
HETATM    8  C12 UNL     1      -2.113  48.922 -22.398  1.00  0.00     0.011 C 
HETATM    9  C13 UNL     1      -3.386  49.646 -22.892  1.00  0.00    -0.028 C 
HETATM   10  C14 UNL     1      -4.242  48.645 -23.723  1.00  0.00     0.016 C 
HETATM   11  C15 UNL     1      -3.183  50.942 -23.754  1.00  0.00     0.057 C 
HETATM   12  C24 UNL     1      -4.525  51.715 -23.533  1.00  0.00     0.126 C 
HETATM   13  C25 UNL     1      -5.224  51.064 -22.309  1.00  0.00     0.042 C 
HETATM   14  C26 UNL     1      -4.140  50.206 -21.626  1.00  0.00    -0.029 C 
HETATM   15  C27 UNL     1      -3.282  51.184 -20.762  1.00  0.00     0.016 C 
HETATM   16  C28 UNL     1      -4.705  49.024 -20.751  1.00  0.00     0.006 C 
HETATM   17  C29 UNL     1      -4.971  49.404 -19.267  1.00  0.00     0.038 C 
HETATM   18  C30 UNL     1      -5.633  48.293 -18.420  1.00  0.00     0.124 C 
HETATM   19  C31 UNL     1      -5.544  46.905 -19.088  1.00  0.00     0.034 C 
HETATM   20  C32 UNL     1      -5.973  45.646 -18.263  1.00  0.00    -0.015 C 
HETATM   21  C33 UNL     1      -7.215  45.950 -17.389  1.00  0.00     0.018 C 
HETATM   22  C34 UNL     1      -6.402  44.533 -19.265  1.00  0.00     0.018 C 
ENDROOT
BRANCH   1  23
HETATM   23  O3  UNL     1      -5.276  43.853 -16.796  1.00  0.00    -0.352 OA
BRANCH  23  24
HETATM   24  C4  UNL     1      -4.353  42.761 -16.829  1.00  0.00     0.292 C 
HETATM   25  C3  UNL     1      -4.162  42.296 -15.364  1.00  0.00     0.218 C 
HETATM   26  C37 UNL     1      -3.446  40.935 -15.278  1.00  0.00     0.183 C 
HETATM   27  C36 UNL     1      -3.950  39.937 -16.325  1.00  0.00     0.173 C 
HETATM   28  C35 UNL     1      -4.024  40.587 -17.693  1.00  0.00     0.205 C 
HETATM   29  O8  UNL     1      -4.881  41.719 -17.641  1.00  0.00    -0.356 OA
BRANCH  25  30
HETATM   30  O2  UNL     1      -3.363  43.333 -14.713  1.00  0.00    -0.309 OA
BRANCH  30  31
HETATM   31  C2  UNL     1      -2.093  43.508 -15.138  1.00  0.00     0.255 C 
HETATM   32  C1  UNL     1      -1.465  44.675 -14.449  1.00  0.00     0.126 C 
HETATM   33  O1  UNL     1      -1.532  42.814 -15.976  1.00  0.00    -0.266 OA
ENDBRANCH  30  31
ENDBRANCH  25  30
BRANCH  26  34
HETATM   34  O10 UNL     1      -3.624  40.283 -14.001  1.00  0.00    -0.390 OA
HETATM   35  H60 UNL     1      -3.753  40.970 -13.312  1.00  0.00     0.210 HD
ENDBRANCH  26  34
BRANCH  27  36
HETATM   36  O9  UNL     1      -3.075  38.809 -16.363  1.00  0.00    -0.391 OA
HETATM   37  H58 UNL     1      -3.163  38.385 -15.482  1.00  0.00     0.210 HD
ENDBRANCH  27  36
ENDBRANCH  23  24
ENDBRANCH   1  23
BRANCH  18  38
HETATM   38  O7  UNL     1      -5.056  48.288 -17.116  1.00  0.00    -0.395 OA
HETATM   39  H47 UNL     1      -5.169  49.187 -16.760  1.00  0.00     0.210 HD
ENDBRANCH  18  38
BRANCH  11  40
HETATM   40  C16 UNL     1      -2.592  50.898 -25.199  1.00  0.00     0.065 C 
HETATM   41  C17 UNL     1      -3.040  49.601 -25.906  1.00  0.00     0.046 C 
HETATM   42  C18 UNL     1      -2.809  52.090 -26.123  1.00  0.00     0.041 C 
HETATM   43  C19 UNL     1      -1.631  52.046 -27.069  1.00  0.00     0.038 C 
HETATM   44  C20 UNL     1      -0.549  51.293 -26.307  1.00  0.00     0.156 C 
HETATM   45  O5  UNL     1      -1.144  50.813 -25.077  1.00  0.00    -0.372 OA
BRANCH  44  46
HETATM   46  C21 UNL     1       0.754  52.065 -26.002  1.00  0.00     0.076 C 
HETATM   47  C22 UNL     1       0.855  52.431 -24.519  1.00  0.00     0.048 C 
HETATM   48  C23 UNL     1       2.014  51.334 -26.458  1.00  0.00     0.048 C 
BRANCH  46  49
HETATM   49  O4  UNL     1       0.710  53.302 -26.731  1.00  0.00    -0.388 OA
HETATM   50  H35 UNL     1       0.396  53.062 -27.624  1.00  0.00     0.210 HD
ENDBRANCH  46  49
ENDBRANCH  44  46
ENDBRANCH  11  40
BRANCH  12  51
HETATM   51  O6  UNL     1      -5.415  51.657 -24.631  1.00  0.00    -0.395 OA
HETATM   52  H37 UNL     1      -6.188  52.200 -24.412  1.00  0.00     0.210 HD
ENDBRANCH  12  51
TORSDOF 11
ENDMDL
