MODEL 1
REMARK minimizedAffinity -8.13140392
REMARK CNNscore 0.423647732
REMARK CNNaffinity 7.06469393
REMARK  7 active torsions:
REMARK  status: ('A' for Active; 'I' for Inactive)
REMARK    1  A    between atoms: O1_2  and  C2_3 
REMARK    2  A    between atoms: C19_21  and  C20_22 
REMARK    3  A    between atoms: C20_22  and  C22_24 
REMARK    4  A    between atoms: C22_24  and  C23_25 
REMARK    5  A    between atoms: C23_25  and  C24_26 
REMARK    6  A    between atoms: C25_27  and  C27_29 
REMARK    7  A    between atoms: C27_29  and  O4_31 
ROOT
HETATM    1  C2  UNL     1      -4.694   4.391  12.040  1.00  0.00     0.151 C 
HETATM    2  C3  UNL     1      -3.287   4.672  11.504  1.00  0.00     0.043 C 
HETATM    3  C4  UNL     1      -2.276   4.775  12.655  1.00  0.00     0.016 C 
HETATM    4  C5  UNL     1      -0.782   4.732  12.185  1.00  0.00     0.018 C 
HETATM    5  C6  UNL     1      -0.521   5.447  10.844  1.00  0.00     0.023 C 
HETATM    6  C7  UNL     1      -0.333   3.264  12.017  1.00  0.00     0.023 C 
HETATM    7  C8  UNL     1       0.110   5.340  13.275  1.00  0.00     0.135 C 
HETATM    8  O2  UNL     1       1.212   5.832  13.028  1.00  0.00    -0.297 OA
HETATM    9  C9  UNL     1      -0.380   5.233  14.697  1.00  0.00     0.080 C 
HETATM   10  C10 UNL     1      -1.780   5.806  14.896  1.00  0.00     0.021 C 
HETATM   11  C11 UNL     1      -2.635   5.973  13.605  1.00  0.00    -0.015 C 
HETATM   12  C12 UNL     1      -2.325   7.350  12.966  1.00  0.00     0.020 C 
HETATM   13  C13 UNL     1      -4.149   5.965  13.956  1.00  0.00    -0.066 C 
HETATM   14  C14 UNL     1      -5.055   5.229  13.252  1.00  0.00    -0.039 C 
HETATM   15  C15 UNL     1      -6.521   5.213  13.698  1.00  0.00    -0.010 C 
HETATM   16  C16 UNL     1      -6.614   4.072  14.761  1.00  0.00     0.021 C 
HETATM   17  C17 UNL     1      -7.641   4.969  12.666  1.00  0.00     0.015 C 
HETATM   18  C18 UNL     1      -8.920   5.546  13.315  1.00  0.00     0.007 C 
HETATM   19  C19 UNL     1      -8.456   6.452  14.480  1.00  0.00    -0.002 C 
HETATM   20  C28 UNL     1      -6.937   6.647  14.211  1.00  0.00    -0.029 C 
HETATM   21  C29 UNL     1      -6.693   7.755  13.145  1.00  0.00     0.016 C 
HETATM   22  C30 UNL     1      -6.091   6.963  15.445  1.00  0.00     0.015 C 
HETATM   23  C31 UNL     1      -4.583   6.858  15.135  1.00  0.00     0.036 C 
ENDROOT
BRANCH  19  24
HETATM   24  C20 UNL     1      -9.374   7.637  14.894  1.00  0.00    -0.014 C 
HETATM   25  C21 UNL     1      -9.227   7.895  16.405  1.00  0.00     0.010 C 
BRANCH  24  26
HETATM   26  C22 UNL     1     -10.858   7.711  14.465  1.00  0.00     0.008 C 
BRANCH  26  27
HETATM   27  C23 UNL     1     -11.282   7.486  13.010  1.00  0.00     0.028 C 
BRANCH  27  28
HETATM   28  C24 UNL     1     -12.733   7.733  12.716  1.00  0.00    -0.013 C 
HETATM   29  C25 UNL     1     -13.789   7.059  13.214  1.00  0.00     0.008 C 
HETATM   30  C26 UNL     1     -13.718   5.883  14.141  1.00  0.00     0.055 C 
BRANCH  29  31
HETATM   31  C27 UNL     1     -15.133   7.519  12.780  1.00  0.00     0.171 C 
HETATM   32  O3  UNL     1     -15.929   8.166  13.436  1.00  0.00    -0.646 OA
BRANCH  31  33
HETATM   33  O4  UNL     1     -15.424   7.136  11.526  1.00  0.00    -0.773 OA
HETATM   34  H41 UNL     1     -16.321   7.502  11.381  1.00  0.00     0.167 HD
ENDBRANCH  31  33
ENDBRANCH  29  31
ENDBRANCH  27  28
ENDBRANCH  26  27
ENDBRANCH  24  26
ENDBRANCH  19  24
BRANCH   1  35
HETATM   35  O1  UNL     1      -4.779   3.015  12.427  1.00  0.00    -0.386 OA
HETATM   36  C1  UNL     1      -4.402   2.118  11.392  1.00  0.00     0.202 C 
ENDBRANCH   1  35
TORSDOF 7
ENDMDL
