MODEL 1
REMARK minimizedAffinity -8.91596127
REMARK CNNscore 0.752888739
REMARK CNNaffinity 6.99213839
REMARK  10 active torsions:
REMARK  status: ('A' for Active; 'I' for Inactive)
REMARK    1  A    between atoms: C19_21  and  O3_22 
REMARK    2  A    between atoms: C19_21  and  C20_23 
REMARK    3  A    between atoms: C20_23  and  C21_25 
REMARK    4  A    between atoms: C21_25  and  O5_26 
REMARK    5  A    between atoms: O5_26  and  C22_27 
REMARK    6  A    between atoms: C22_27  and  C23_29 
REMARK    7  A    between atoms: C23_29  and  C24_30 
REMARK    8  A    between atoms: C24_30  and  C25_31 
REMARK       I    between atoms: C25_31  and  N1_33 
REMARK    9  A    between atoms: N1_33  and  C26_34 
REMARK   10  A    between atoms: C26_34  and  C27_35 
ROOT
HETATM    1  C1  UNL     1      -2.322  52.638 -24.221  1.00  0.00     0.021 C 
HETATM    2  C2  UNL     1      -1.289  51.493 -24.315  1.00  0.00    -0.009 C 
HETATM    3  C3  UNL     1       0.156  52.079 -24.302  1.00  0.00     0.022 C 
HETATM    4  C4  UNL     1       0.529  52.826 -25.576  1.00  0.00     0.084 C 
HETATM    5  C5  UNL     1       0.331  51.948 -26.781  1.00  0.00     0.149 C 
HETATM    6  O1  UNL     1       1.000  52.069 -27.803  1.00  0.00    -0.293 OA
HETATM    7  C6  UNL     1      -0.767  50.954 -26.748  1.00  0.00     0.053 C 
HETATM    8  C7  UNL     1      -1.528  50.770 -25.655  1.00  0.00    -0.067 C 
HETATM    9  C8  UNL     1      -2.719  49.842 -25.730  1.00  0.00     0.035 C 
HETATM   10  C9  UNL     1      -2.746  48.855 -24.572  1.00  0.00     0.010 C 
HETATM   11  C10 UNL     1      -2.705  49.587 -23.224  1.00  0.00     0.003 C 
HETATM   12  C11 UNL     1      -1.418  50.462 -23.134  1.00  0.00     0.072 C 
HETATM   13  C12 UNL     1      -1.288  51.057 -21.717  1.00  0.00     0.133 C 
HETATM   14  O2  UNL     1      -1.050  52.243 -21.497  1.00  0.00    -0.297 OA
HETATM   15  C13 UNL     1      -1.403  50.080 -20.552  1.00  0.00     0.091 C 
HETATM   16  C14 UNL     1      -2.717  49.297 -20.667  1.00  0.00     0.005 C 
HETATM   17  C15 UNL     1      -3.907  50.274 -20.469  1.00  0.00     0.019 C 
HETATM   18  C16 UNL     1      -2.722  48.598 -22.051  1.00  0.00     0.002 C 
HETATM   19  C17 UNL     1      -3.880  47.611 -21.951  1.00  0.00     0.009 C 
HETATM   20  C18 UNL     1      -3.898  47.173 -20.471  1.00  0.00     0.047 C 
HETATM   21  C19 UNL     1      -2.861  48.053 -19.741  1.00  0.00     0.128 C 
ENDROOT
BRANCH  21  22
HETATM   22  O3  UNL     1      -1.618  47.323 -19.746  1.00  0.00    -0.381 OA
HETATM   23  H25 UNL     1      -1.082  47.677 -19.004  1.00  0.00     0.211 HD
ENDBRANCH  21  22
BRANCH  21  24
HETATM   24  C20 UNL     1      -3.139  48.396 -18.265  1.00  0.00     0.185 C 
HETATM   25  O4  UNL     1      -4.285  48.236 -17.826  1.00  0.00    -0.292 OA
BRANCH  24  26
HETATM   26  C21 UNL     1      -1.998  48.890 -17.386  1.00  0.00     0.260 C 
BRANCH  26  27
HETATM   27  O5  UNL     1      -2.447  49.208 -16.069  1.00  0.00    -0.314 OA
BRANCH  27  28
HETATM   28  C22 UNL     1      -2.668  50.530 -15.853  1.00  0.00     0.259 C 
HETATM   29  O6  UNL     1      -2.915  51.341 -16.740  1.00  0.00    -0.265 OA
BRANCH  28  30
HETATM   30  C23 UNL     1      -2.557  50.924 -14.399  1.00  0.00     0.120 C 
BRANCH  30  31
HETATM   31  C24 UNL     1      -3.312  52.187 -14.003  1.00  0.00     0.112 C 
BRANCH  31  32
HETATM   32  C25 UNL     1      -3.546  52.267 -12.506  1.00  0.00     0.218 C 
HETATM   33  O7  UNL     1      -3.685  51.283 -11.789  1.00  0.00    -0.274 OA
HETATM   34  N1  UNL     1      -3.609  53.565 -12.047  1.00  0.00    -0.356 N 
HETATM   35  H32 UNL     1      -3.308  54.310 -12.659  1.00  0.00     0.162 HD
BRANCH  34  36
HETATM   36  C26 UNL     1      -3.707  53.861 -10.634  1.00  0.00     0.168 C 
BRANCH  36  37
HETATM   37  C27 UNL     1      -2.332  54.126 -10.102  1.00  0.00     0.000 A 
HETATM   38  C28 UNL     1      -1.524  55.231 -10.308  1.00  0.00     0.017 A 
HETATM   39  C29 UNL     1      -0.269  55.117  -9.642  1.00  0.00     0.008 A 
HETATM   40  C30 UNL     1      -0.163  53.938  -8.939  1.00  0.00     0.050 A 
HETATM   41  S1  UNL     1      -1.567  52.974  -9.085  1.00  0.00    -0.105 SA
ENDBRANCH  36  37
ENDBRANCH  34  36
ENDBRANCH  31  32
ENDBRANCH  30  31
ENDBRANCH  28  30
ENDBRANCH  27  28
ENDBRANCH  26  27
ENDBRANCH  24  26
ENDBRANCH  21  24
TORSDOF 10
ENDMDL
