MODEL 1
REMARK minimizedAffinity -9.34460735
REMARK  7 active torsions:
REMARK  status: ('A' for Active; 'I' for Inactive)
REMARK    1  A    between atoms: C4_4  and  C5_5 
REMARK    2  A    between atoms: C5_5  and  O1_6 
REMARK    3  A    between atoms: C5_5  and  C6_7 
REMARK    4  A    between atoms: C6_7  and  C7_8 
REMARK    5  A    between atoms: C7_8  and  C8_9 
REMARK    6  A    between atoms: C7_8  and  C9_11 
REMARK    7  A    between atoms: C8_9  and  O2_10 
ROOT
HETATM    1  C9  UNL     1      -6.225   6.807  14.770  1.00  0.00     0.001 C 
HETATM    2  C10 UNL     1      -5.949   7.870  15.873  1.00  0.00     0.007 C 
HETATM    3  C11 UNL     1      -4.485   8.309  15.710  1.00  0.00     0.015 C 
HETATM    4  C12 UNL     1      -3.834   7.200  14.859  1.00  0.00    -0.013 C 
HETATM    5  C13 UNL     1      -3.494   6.037  15.841  1.00  0.00     0.021 C 
HETATM    6  C14 UNL     1      -2.556   7.522  14.107  1.00  0.00    -0.070 C 
HETATM    7  C15 UNL     1      -1.753   8.561  14.383  1.00  0.00    -0.022 C 
HETATM    8  C16 UNL     1      -0.553   8.857  13.541  1.00  0.00     0.034 C 
HETATM    9  C17 UNL     1       0.227   7.604  13.057  1.00  0.00     0.013 C 
HETATM   10  C18 UNL     1       1.167   7.918  11.845  1.00  0.00     0.018 C 
HETATM   11  C19 UNL     1       2.203   8.996  12.245  1.00  0.00     0.023 C 
HETATM   12  C20 UNL     1       0.448   8.437  10.588  1.00  0.00     0.023 C 
HETATM   13  C21 UNL     1       1.936   6.638  11.493  1.00  0.00     0.135 C 
HETATM   14  O3  UNL     1       3.154   6.630  11.291  1.00  0.00    -0.297 OA
HETATM   15  C22 UNL     1       1.173   5.341  11.378  1.00  0.00     0.080 C 
HETATM   16  C23 UNL     1      -0.314   5.473  11.651  1.00  0.00     0.017 C 
HETATM   17  C24 UNL     1      -0.664   6.292  12.919  1.00  0.00    -0.031 C 
HETATM   18  C25 UNL     1      -0.326   5.395  14.151  1.00  0.00     0.016 C 
HETATM   19  C26 UNL     1      -2.204   6.646  12.909  1.00  0.00     0.024 C 
HETATM   20  C27 UNL     1      -3.149   5.429  12.701  1.00  0.00     0.010 C 
HETATM   21  C28 UNL     1      -4.643   5.608  13.056  1.00  0.00     0.011 C 
HETATM   22  C29 UNL     1      -4.981   6.899  13.827  1.00  0.00    -0.029 C 
HETATM   23  C30 UNL     1      -5.179   8.036  12.783  1.00  0.00     0.016 C 
ENDROOT
BRANCH   1  24
HETATM   24  C7  UNL     1      -7.692   6.824  14.253  1.00  0.00     0.017 C 
BRANCH  24  25
HETATM   25  C6  UNL     1      -8.008   5.921  13.029  1.00  0.00     0.043 C 
BRANCH  25  26
HETATM   26  C5  UNL     1      -7.783   4.417  13.284  1.00  0.00     0.141 C 
BRANCH  26  27
HETATM   27  C4  UNL     1      -6.841   3.841  12.264  1.00  0.00     0.006 C 
HETATM   28  C2  UNL     1      -6.559   2.546  12.016  1.00  0.00    -0.089 C 
HETATM   29  C1  UNL     1      -7.155   1.367  12.734  1.00  0.00     0.042 C 
HETATM   30  C3  UNL     1      -5.570   2.175  10.941  1.00  0.00     0.042 C 
ENDBRANCH  26  27
BRANCH  26  31
HETATM   31  O1  UNL     1      -9.026   3.733  13.136  1.00  0.00    -0.392 OA
HETATM   32  H9  UNL     1      -8.814   2.786  13.063  1.00  0.00     0.210 HD
ENDBRANCH  26  31
ENDBRANCH  25  26
ENDBRANCH  24  25
BRANCH  24  33
HETATM   33  C8  UNL     1      -8.689   6.567  15.394  1.00  0.00     0.169 C 
BRANCH  33  34
HETATM   34  O2  UNL     1      -8.345   5.390  16.117  1.00  0.00    -0.400 OA
HETATM   35  H15 UNL     1      -8.296   4.663  15.464  1.00  0.00     0.209 HD
ENDBRANCH  33  34
ENDBRANCH  24  33
ENDBRANCH   1  24
TORSDOF 7
ENDMDL
