MODEL 1
REMARK minimizedAffinity -7.96803188
REMARK CNNscore 0.607078135
REMARK CNNaffinity 5.49583054
REMARK  12 active torsions:
REMARK  status: ('A' for Active; 'I' for Inactive)
REMARK    1  A    between atoms: C2_2  and  O1_3 
REMARK    2  A    between atoms: C2_2  and  C3_4 
REMARK    3  A    between atoms: C4_5  and  C5_6 
REMARK    4  A    between atoms: C5_6  and  O2_7 
REMARK    5  A    between atoms: C8_10  and  O3_11 
REMARK    6  A    between atoms: O3_11  and  C9_12 
REMARK    7  A    between atoms: C10_14  and  C11_15 
REMARK    8  A    between atoms: C11_15  and  O5_16 
REMARK    9  A    between atoms: C12_17  and  O6_18 
REMARK   10  A    between atoms: C13_19  and  O7_20 
REMARK   11  A    between atoms: C14_21  and  O8_22 
REMARK   12  A    between atoms: C15_23  and  O9_24 
ROOT
HETATM    1  C5  UNL     1      -6.426   5.637  13.759  1.00  0.00     0.088 C 
HETATM    2  C6  UNL     1      -4.935   5.537  14.195  1.00  0.00     0.052 C 
HETATM    3  C7  UNL     1      -4.012   4.926  13.124  1.00  0.00     0.016 C 
HETATM    4  C8  UNL     1      -4.384   6.938  14.568  1.00  0.00     0.160 C 
HETATM    5  C15 UNL     1      -5.446   7.855  15.224  1.00  0.00     0.148 C 
HETATM    6  C16 UNL     1      -6.529   7.049  15.936  1.00  0.00     0.046 C 
HETATM    7  C17 UNL     1      -7.315   6.082  15.002  1.00  0.00    -0.010 C 
HETATM    8  C18 UNL     1      -8.610   6.792  14.538  1.00  0.00     0.018 C 
HETATM    9  C19 UNL     1      -7.750   4.885  15.888  1.00  0.00     0.018 C 
ENDROOT
BRANCH   4  10
HETATM   10  O3  UNL     1      -3.290   6.758  15.491  1.00  0.00    -0.350 OA
BRANCH  10  11
HETATM   11  C9  UNL     1      -2.079   7.362  15.015  1.00  0.00     0.292 C 
HETATM   12  O4  UNL     1      -1.245   6.340  14.469  1.00  0.00    -0.348 OA
HETATM   13  C10 UNL     1       0.008   6.841  13.992  1.00  0.00     0.179 C 
HETATM   14  C12 UNL     1       0.806   7.460  15.149  1.00  0.00     0.180 C 
HETATM   15  C13 UNL     1      -0.018   8.578  15.790  1.00  0.00     0.183 C 
HETATM   16  C14 UNL     1      -1.398   8.069  16.207  1.00  0.00     0.204 C 
BRANCH  13  17
HETATM   17  C11 UNL     1       0.789   5.693  13.337  1.00  0.00     0.198 C 
BRANCH  17  18
HETATM   18  O5  UNL     1       1.963   6.155  12.675  1.00  0.00    -0.398 OA
HETATM   19  H18 UNL     1       2.394   6.802  13.275  1.00  0.00     0.209 HD
ENDBRANCH  17  18
ENDBRANCH  13  17
BRANCH  14  20
HETATM   20  O6  UNL     1       2.057   7.991  14.693  1.00  0.00    -0.390 OA
HETATM   21  H20 UNL     1       2.382   8.543  15.436  1.00  0.00     0.210 HD
ENDBRANCH  14  20
BRANCH  15  22
HETATM   22  O7  UNL     1       0.695   9.092  16.925  1.00  0.00    -0.390 OA
HETATM   23  H22 UNL     1       0.035   9.604  17.438  1.00  0.00     0.210 HD
ENDBRANCH  15  22
BRANCH  16  24
HETATM   24  O8  UNL     1      -2.155   9.190  16.703  1.00  0.00    -0.388 OA
HETATM   25  H24 UNL     1      -2.634   9.594  15.950  1.00  0.00     0.210 HD
ENDBRANCH  16  24
ENDBRANCH  10  11
ENDBRANCH   4  10
BRANCH   5  26
HETATM   26  O9  UNL     1      -4.826   8.731  16.181  1.00  0.00    -0.393 OA
HETATM   27  H26 UNL     1      -4.492   8.132  16.881  1.00  0.00     0.210 HD
ENDBRANCH   5  26
BRANCH   1  28
HETATM   28  C4  UNL     1      -6.915   4.335  13.136  1.00  0.00     0.010 C 
HETATM   29  C3  UNL     1      -6.270   3.529  12.272  1.00  0.00     0.003 C 
BRANCH  29  30
HETATM   30  C2  UNL     1      -6.833   2.241  11.747  1.00  0.00     0.136 C 
HETATM   31  C1  UNL     1      -5.728   1.255  11.397  1.00  0.00     0.043 C 
BRANCH  30  32
HETATM   32  O1  UNL     1      -7.642   1.689  12.779  1.00  0.00    -0.392 OA
HETATM   33  H5  UNL     1      -8.056   0.885  12.421  1.00  0.00     0.210 HD
ENDBRANCH  30  32
ENDBRANCH  29  30
ENDBRANCH   1  28
BRANCH   1  34
HETATM   34  O2  UNL     1      -6.467   6.673  12.766  1.00  0.00    -0.385 OA
HETATM   35  H8  UNL     1      -7.346   6.659  12.352  1.00  0.00     0.211 HD
ENDBRANCH   1  34
TORSDOF 12
ENDMDL
