MODEL 1
REMARK minimizedAffinity -7.8592906
REMARK CNNscore 0.617861152
REMARK CNNaffinity 6.75846338
REMARK  4 active torsions:
REMARK  status: ('A' for Active; 'I' for Inactive)
REMARK    1  A    between atoms: C2_2  and  C4_4 
REMARK    2  A    between atoms: C4_4  and  C5_5 
REMARK    3  A    between atoms: C5_5  and  O1_6 
REMARK    4  A    between atoms: C8_9  and  C9_10 
ROOT
HETATM    1  C9  UNL     1      -0.108  11.512  19.057  1.00  0.00     0.001 C 
HETATM    2  C10 UNL     1      -1.110  12.668  19.235  1.00  0.00     0.007 C 
HETATM    3  C11 UNL     1      -1.328  13.275  17.844  1.00  0.00     0.011 C 
HETATM    4  C12 UNL     1      -0.680  12.305  16.828  1.00  0.00    -0.032 C 
HETATM    5  C13 UNL     1      -0.234  13.112  15.581  1.00  0.00     0.016 C 
HETATM    6  C14 UNL     1      -1.695  11.206  16.307  1.00  0.00     0.004 C 
HETATM    7  C15 UNL     1      -2.859  10.745  17.210  1.00  0.00     0.007 C 
HETATM    8  C16 UNL     1      -3.900   9.902  16.439  1.00  0.00     0.007 C 
HETATM    9  C17 UNL     1      -3.436   9.368  15.056  1.00  0.00     0.010 C 
HETATM   10  C18 UNL     1      -4.377   8.281  14.458  1.00  0.00     0.018 C 
HETATM   11  C19 UNL     1      -4.060   8.034  12.970  1.00  0.00     0.023 C 
HETATM   12  C20 UNL     1      -5.854   8.711  14.544  1.00  0.00     0.023 C 
HETATM   13  C21 UNL     1      -4.204   6.957  15.211  1.00  0.00     0.135 C 
HETATM   14  O2  UNL     1      -5.091   6.103  15.236  1.00  0.00    -0.297 OA
HETATM   15  C22 UNL     1      -2.914   6.723  15.958  1.00  0.00     0.080 C 
HETATM   16  C23 UNL     1      -1.751   7.418  15.276  1.00  0.00     0.018 C 
HETATM   17  C24 UNL     1      -1.967   8.917  15.140  1.00  0.00    -0.026 A 
HETATM   18  C25 UNL     1      -0.946   9.676  14.313  1.00  0.00     0.021 A 
HETATM   19  C26 UNL     1      -1.006   9.932  15.797  1.00  0.00    -0.027 A 
HETATM   20  C27 UNL     1       0.105   9.408  16.677  1.00  0.00     0.011 C 
HETATM   21  C28 UNL     1       1.125  10.480  17.015  1.00  0.00     0.011 C 
HETATM   22  C29 UNL     1       0.540  11.752  17.655  1.00  0.00    -0.032 C 
HETATM   23  C30 UNL     1       1.715  12.759  17.737  1.00  0.00     0.016 C 
ENDROOT
BRANCH   1  24
HETATM   24  C8  UNL     1       0.808  11.222  20.280  1.00  0.00     0.014 C 
HETATM   25  C7  UNL     1       1.569  12.508  20.663  1.00  0.00     0.010 C 
HETATM   26  C6  UNL     1       2.697  12.198  21.639  1.00  0.00     0.041 C 
HETATM   27  C4  UNL     1       3.722  11.190  21.052  1.00  0.00     0.085 C 
HETATM   28  O3  UNL     1       3.130  10.477  19.938  1.00  0.00    -0.377 OA
HETATM   29  C31 UNL     1       1.788  10.044  20.149  1.00  0.00     0.174 C 
BRANCH  27  30
HETATM   30  C2  UNL     1       4.200  10.183  22.152  1.00  0.00     0.014 C 
HETATM   31  C1  UNL     1       5.288  10.758  23.070  1.00  0.00     0.012 C 
HETATM   32  C3  UNL     1       3.058   9.621  23.008  1.00  0.00     0.012 C 
ENDBRANCH  27  30
BRANCH  27  33
HETATM   33  C5  UNL     1       4.924  11.950  20.425  1.00  0.00     0.202 C 
BRANCH  33  34
HETATM   34  O1  UNL     1       5.693  11.080  19.591  1.00  0.00    -0.398 OA
HETATM   35  H10 UNL     1       5.839  10.285  20.141  1.00  0.00     0.209 HD
ENDBRANCH  33  34
ENDBRANCH  27  33
ENDBRANCH   1  24
TORSDOF 4
ENDMDL
