MODEL 1
REMARK minimizedAffinity -9.19430351
REMARK  5 active torsions:
REMARK  status: ('A' for Active; 'I' for Inactive)
REMARK    1  A    between atoms: O1_2  and  C2_3 
REMARK    2  A    between atoms: C12_15  and  C13_16 
REMARK    3  A    between atoms: C13_16  and  C15_18 
REMARK    4  A    between atoms: C15_18  and  C16_19 
REMARK    5  A    between atoms: C16_19  and  C17_21 
ROOT
HETATM    1  C2  UNL     1      -7.326  49.307 -21.515  1.00  0.00     0.270 C 
HETATM    2  O2  UNL     1      -7.783  47.954 -21.430  1.00  0.00    -0.347 OA
HETATM    3  C3  UNL     1      -7.192  47.187 -22.500  1.00  0.00     0.089 C 
HETATM    4  C4  UNL     1      -6.029  46.404 -21.869  1.00  0.00     0.118 C 
HETATM    5  C5  UNL     1      -4.934  47.274 -21.284  1.00  0.00     0.135 C 
HETATM    6  O3  UNL     1      -4.093  46.759 -20.541  1.00  0.00    -0.297 OA
HETATM    7  C6  UNL     1      -4.824  48.750 -21.677  1.00  0.00     0.078 C 
HETATM    8  C7  UNL     1      -6.091  49.291 -22.459  1.00  0.00     0.027 C 
HETATM    9  C8  UNL     1      -5.881  50.727 -23.026  1.00  0.00     0.016 C 
HETATM   10  C9  UNL     1      -4.490  51.057 -23.591  1.00  0.00     0.011 C 
HETATM   11  C10 UNL     1      -3.380  50.637 -22.616  1.00  0.00    -0.032 C 
HETATM   12  C11 UNL     1      -3.543  51.483 -21.315  1.00  0.00     0.016 C 
HETATM   13  C12 UNL     1      -1.920  50.772 -23.137  1.00  0.00    -0.002 C 
HETATM   14  C21 UNL     1      -1.135  49.807 -22.205  1.00  0.00     0.006 C 
HETATM   15  C22 UNL     1      -2.178  48.845 -21.580  1.00  0.00     0.011 C 
HETATM   16  C23 UNL     1      -3.474  49.081 -22.388  1.00  0.00    -0.025 C 
HETATM   17  C24 UNL     1      -3.307  48.223 -23.684  1.00  0.00     0.016 C 
HETATM   18  C25 UNL     1      -6.577  48.227 -23.469  1.00  0.00     0.036 C 
HETATM   19  C26 UNL     1      -7.560  48.687 -24.549  1.00  0.00     0.016 C 
HETATM   20  C27 UNL     1      -8.019  47.515 -25.409  1.00  0.00     0.079 C 
HETATM   21  C28 UNL     1      -8.065  46.208 -24.645  1.00  0.00     0.137 C 
HETATM   22  O5  UNL     1      -7.940  45.142 -25.248  1.00  0.00    -0.297 OA
HETATM   23  C29 UNL     1      -8.309  46.276 -23.135  1.00  0.00     0.045 C 
HETATM   24  C30 UNL     1      -8.328  44.844 -22.555  1.00  0.00     0.026 C 
HETATM   25  C31 UNL     1      -9.740  46.826 -22.922  1.00  0.00     0.026 C 
ENDROOT
BRANCH  13  26
HETATM   26  C13 UNL     1      -1.328  52.197 -23.332  1.00  0.00    -0.007 C 
HETATM   27  C14 UNL     1      -2.057  52.890 -24.500  1.00  0.00     0.011 C 
BRANCH  26  28
HETATM   28  C15 UNL     1       0.189  52.267 -23.600  1.00  0.00     0.087 C 
BRANCH  28  29
HETATM   29  C16 UNL     1       0.527  53.286 -24.678  1.00  0.00     0.149 C 
HETATM   30  O4  UNL     1       1.012  54.382 -24.414  1.00  0.00    -0.293 OA
BRANCH  29  31
HETATM   31  C17 UNL     1       0.286  52.859 -26.089  1.00  0.00     0.052 C 
HETATM   32  C18 UNL     1       1.090  52.047 -26.803  1.00  0.00    -0.084 C 
HETATM   33  C19 UNL     1       0.722  51.657 -28.208  1.00  0.00     0.043 C 
HETATM   34  C20 UNL     1       2.392  51.467 -26.319  1.00  0.00     0.043 C 
ENDBRANCH  29  31
ENDBRANCH  28  29
ENDBRANCH  26  28
ENDBRANCH  13  26
BRANCH   1  35
HETATM   35  O1  UNL     1      -7.001  49.836 -20.241  1.00  0.00    -0.365 OA
HETATM   36  C1  UNL     1      -7.511  49.040 -19.181  1.00  0.00     0.204 C 
ENDBRANCH   1  35
TORSDOF 5
ENDMDL
