MODEL 1
REMARK minimizedAffinity -10.6246595
REMARK CNNscore 0.697326005
REMARK CNNaffinity 7.78940153
REMARK  16 active torsions:
REMARK  status: ('A' for Active; 'I' for Inactive)
REMARK    1  A    between atoms: C2_2  and  C7_9 
REMARK    2  A    between atoms: C3_3  and  C4_4 
REMARK    3  A    between atoms: C4_4  and  C6_6 
REMARK    4  A    between atoms: C6_6  and  O2_8 
REMARK    5  A    between atoms: C7_9  and  C8_10 
REMARK    6  A    between atoms: C8_10  and  C9_11 
REMARK    7  A    between atoms: C9_11  and  O3_12 
REMARK    8  A    between atoms: C9_11  and  C10_13 
REMARK    9  A    between atoms: C10_13  and  C11_14 
REMARK   10  A    between atoms: C13_16  and  O4_17 
REMARK   11  A    between atoms: C17_23  and  C19_25 
REMARK   12  A    between atoms: C22_28  and  C24_30 
REMARK   13  A    between atoms: C25_32  and  C26_33 
REMARK   14  A    between atoms: C27_35  and  O9_36 
REMARK   15  A    between atoms: C27_35  and  C28_37 
REMARK   16  A    between atoms: C28_37  and  O10_38 
ROOT
HETATM    1  C11 UNL     1      -0.296   7.985  11.253  1.00  0.00     0.130 C 
HETATM    2  C12 UNL     1       0.766   8.897  11.876  1.00  0.00     0.064 C 
HETATM    3  C13 UNL     1       0.933   8.660  13.363  1.00  0.00     0.129 C 
HETATM    4  C14 UNL     1      -0.443   8.550  14.021  1.00  0.00     0.073 C 
HETATM    5  C15 UNL     1      -1.253   9.857  13.889  1.00  0.00     0.018 C 
HETATM    6  C16 UNL     1      -1.173   7.298  13.452  1.00  0.00     0.174 C 
HETATM    7  O5  UNL     1      -0.771   6.961  12.120  1.00  0.00    -0.349 OA
HETATM    8  O6  UNL     1      -2.595   7.526  13.517  1.00  0.00    -0.341 OA
HETATM    9  C17 UNL     1      -3.279   6.344  13.960  1.00  0.00     0.087 C 
HETATM   10  C18 UNL     1      -3.692   5.543  12.722  1.00  0.00     0.049 C 
HETATM   11  C37 UNL     1      -2.255   5.579  14.806  1.00  0.00     0.050 C 
HETATM   12  C38 UNL     1      -0.890   6.041  14.328  1.00  0.00     0.047 C 
HETATM   13  C39 UNL     1      -0.119   4.893  13.656  1.00  0.00     0.015 C 
ENDROOT
BRANCH   9  14
HETATM   14  C19 UNL     1      -4.517   6.671  14.839  1.00  0.00     0.157 C 
HETATM   15  C20 UNL     1      -4.901   8.135  14.937  1.00  0.00     0.038 C 
HETATM   16  C21 UNL     1      -6.248   8.033  15.625  1.00  0.00     0.043 C 
HETATM   17  C22 UNL     1      -6.839   6.717  15.074  1.00  0.00     0.084 C 
HETATM   18  C23 UNL     1      -7.276   5.845  16.261  1.00  0.00     0.049 C 
HETATM   19  O11 UNL     1      -5.742   6.044  14.405  1.00  0.00    -0.370 OA
BRANCH  17  20
HETATM   20  C24 UNL     1      -7.980   7.028  14.073  1.00  0.00     0.160 C 
HETATM   21  O7  UNL     1      -9.203   7.355  14.778  1.00  0.00    -0.375 OA
HETATM   22  C25 UNL     1     -10.303   6.650  14.163  1.00  0.00     0.152 C 
HETATM   23  C34 UNL     1      -9.832   6.335  12.746  1.00  0.00     0.041 C 
HETATM   24  C35 UNL     1      -8.353   6.029  12.957  1.00  0.00     0.016 C 
HETATM   25  C36 UNL     1      -8.158   4.546  13.214  1.00  0.00     0.012 C 
BRANCH  22  26
HETATM   26  C26 UNL     1     -11.628   7.439  14.279  1.00  0.00     0.158 C 
HETATM   27  O8  UNL     1     -11.485   8.708  13.643  1.00  0.00    -0.345 OA
HETATM   28  C27 UNL     1     -12.541   9.639  13.893  1.00  0.00     0.187 C 
HETATM   29  C29 UNL     1     -13.943   8.970  13.876  1.00  0.00     0.046 C 
HETATM   30  C30 UNL     1     -14.568   8.790  15.265  1.00  0.00     0.015 C 
HETATM   31  C31 UNL     1     -13.887   7.644  13.104  1.00  0.00     0.016 C 
HETATM   32  C32 UNL     1     -12.792   6.684  13.603  1.00  0.00     0.014 C 
HETATM   33  C33 UNL     1     -13.374   5.594  14.512  1.00  0.00     0.012 C 
BRANCH  28  34
HETATM   34  O9  UNL     1     -12.298  10.284  15.134  1.00  0.00    -0.363 OA
HETATM   35  H41 UNL     1     -11.472  10.778  14.961  1.00  0.00     0.213 HD
ENDBRANCH  28  34
BRANCH  28  36
HETATM   36  C28 UNL     1     -12.436  10.722  12.783  1.00  0.00     0.232 C 
BRANCH  36  37
HETATM   37  O10 UNL     1     -12.709  10.147  11.491  1.00  0.00    -0.396 OA
HETATM   38  H44 UNL     1     -12.942  10.883  10.897  1.00  0.00     0.209 HD
ENDBRANCH  36  37
ENDBRANCH  28  36
ENDBRANCH  22  26
ENDBRANCH  17  20
ENDBRANCH   9  14
BRANCH   3  39
HETATM   39  O4  UNL     1       1.691   9.731  13.923  1.00  0.00    -0.395 OA
HETATM   40  H22 UNL     1       1.833   9.526  14.864  1.00  0.00     0.210 HD
ENDBRANCH   3  39
BRANCH   1  41
HETATM   41  C10 UNL     1       0.232   7.304   9.962  1.00  0.00     0.063 C 
BRANCH  41  42
HETATM   42  C9  UNL     1       0.537   8.257   8.794  1.00  0.00     0.120 C 
BRANCH  42  43
HETATM   43  C8  UNL     1       1.630   7.744   7.839  1.00  0.00     0.036 C 
BRANCH  43  44
HETATM   44  C7  UNL     1       3.060   8.206   8.162  1.00  0.00     0.036 C 
BRANCH  44  45
HETATM   45  C2  UNL     1       3.691   7.618   9.403  1.00  0.00    -0.087 C 
HETATM   46  C1  UNL     1       3.461   6.151   9.623  1.00  0.00     0.043 C 
HETATM   47  C3  UNL     1       4.465   8.398  10.189  1.00  0.00    -0.010 C 
BRANCH  47  48
HETATM   48  C4  UNL     1       5.220   8.088  11.463  1.00  0.00     0.102 C 
HETATM   49  C5  UNL     1       4.381   7.795  12.709  1.00  0.00     0.025 C 
BRANCH  48  50
HETATM   50  C6  UNL     1       6.198   6.957  11.185  1.00  0.00     0.147 C 
HETATM   51  O1  UNL     1       7.159   6.957  10.433  1.00  0.00    -0.650 OA
BRANCH  50  52
HETATM   52  O2  UNL     1       5.931   5.845  11.912  1.00  0.00    -0.776 OA
HETATM   53  H9  UNL     1       6.659   5.237  11.666  1.00  0.00     0.167 HD
ENDBRANCH  50  52
ENDBRANCH  48  50
ENDBRANCH  47  48
ENDBRANCH  44  45
ENDBRANCH  43  44
ENDBRANCH  42  43
BRANCH  42  54
HETATM   54  O3  UNL     1      -0.644   8.437   8.009  1.00  0.00    -0.395 OA
HETATM   55  H15 UNL     1      -0.443   9.107   7.336  1.00  0.00     0.210 HD
ENDBRANCH  42  54
ENDBRANCH  41  42
ENDBRANCH   1  41
TORSDOF 16
ENDMDL
