MODEL 1
REMARK minimizedAffinity -9.50962734
REMARK  13 active torsions:
REMARK  status: ('A' for Active; 'I' for Inactive)
REMARK    1  A    between atoms: C4_4  and  C5_5 
REMARK    2  A    between atoms: C5_5  and  C6_6 
REMARK    3  A    between atoms: C6_6  and  C7_7 
REMARK    4  A    between atoms: C9_9  and  C10_10 
REMARK    5  A    between atoms: C11_11  and  C12_12 
REMARK    6  A    between atoms: C14_14  and  C15_15 
REMARK    7  A    between atoms: C18_18  and  C19_19 
REMARK    8  A    between atoms: C19_19  and  C20_20 
REMARK    9  A    between atoms: C20_20  and  C21_21 
REMARK   10  A    between atoms: C21_21  and  O1_22 
REMARK   11  A    between atoms: C23_24  and  C25_26 
REMARK   12  A    between atoms: C28_30  and  O3_32 
REMARK   13  A    between atoms: C30_33  and  O4_34 
ROOT
HETATM    1  C15 UNL     1      -3.146  50.163 -26.080  1.00  0.00     0.149 C 
HETATM    2  C16 UNL     1      -1.637  50.094 -26.262  1.00  0.00     0.054 C 
HETATM    3  C17 UNL     1      -1.115  51.491 -25.838  1.00  0.00     0.050 C 
HETATM    4  C18 UNL     1      -0.602  51.508 -24.321  1.00  0.00     0.032 C 
HETATM    5  C22 UNL     1       0.122  52.830 -23.929  1.00  0.00    -0.066 C 
HETATM    6  C23 UNL     1       0.747  53.024 -22.733  1.00  0.00    -0.021 C 
HETATM    7  C24 UNL     1       1.043  51.964 -21.706  1.00  0.00     0.052 C 
HETATM    8  C26 UNL     1       0.108  53.894 -25.015  1.00  0.00     0.038 C 
HETATM    9  C27 UNL     1       0.555  53.383 -26.390  1.00  0.00     0.042 C 
HETATM   10  C28 UNL     1       0.102  51.945 -26.731  1.00  0.00     0.067 C 
HETATM   11  C29 UNL     1       1.317  50.999 -26.638  1.00  0.00     0.047 C 
HETATM   12  C30 UNL     1      -2.392  52.355 -26.066  1.00  0.00     0.270 C 
HETATM   13  O5  UNL     1      -3.531  51.525 -26.239  1.00  0.00    -0.351 OA
ENDROOT
BRANCH   4  14
HETATM   14  C19 UNL     1      -1.599  50.983 -23.244  1.00  0.00     0.012 C 
BRANCH  14  15
HETATM   15  C20 UNL     1      -2.665  51.948 -22.708  1.00  0.00     0.027 C 
BRANCH  15  16
HETATM   16  C21 UNL     1      -3.451  51.323 -21.554  1.00  0.00     0.164 C 
BRANCH  16  17
HETATM   17  O1  UNL     1      -4.742  51.910 -21.494  1.00  0.00    -0.401 OA
HETATM   18  H32 UNL     1      -5.194  51.550 -20.711  1.00  0.00     0.209 HD
ENDBRANCH  16  17
ENDBRANCH  15  16
ENDBRANCH  14  15
ENDBRANCH   4  14
BRANCH  10  19
HETATM   19  O3  UNL     1      -0.250  51.918 -28.124  1.00  0.00    -0.389 OA
HETATM   20  H44 UNL     1      -1.048  52.484 -28.215  1.00  0.00     0.210 HD
ENDBRANCH  10  19
BRANCH  12  21
HETATM   21  O4  UNL     1      -2.329  53.153 -27.239  1.00  0.00    -0.370 OA
HETATM   22  H46 UNL     1      -3.224  53.542 -27.292  1.00  0.00     0.212 HD
ENDBRANCH  12  21
BRANCH   1  23
HETATM   23  C14 UNL     1      -3.980  49.260 -26.947  1.00  0.00     0.011 C 
HETATM   24  C12 UNL     1      -4.976  48.408 -26.620  1.00  0.00    -0.063 C 
HETATM   25  C13 UNL     1      -5.530  48.260 -25.227  1.00  0.00     0.048 C 
BRANCH  24  26
HETATM   26  C11 UNL     1      -5.537  47.559 -27.674  1.00  0.00     0.006 C 
HETATM   27  C10 UNL     1      -6.826  47.204 -27.827  1.00  0.00     0.001 C 
BRANCH  27  28
HETATM   28  C9  UNL     1      -7.273  46.303 -28.871  1.00  0.00     0.002 C 
HETATM   29  C7  UNL     1      -7.701  45.032 -28.715  1.00  0.00    -0.084 C 
HETATM   30  C8  UNL     1      -7.877  44.324 -27.394  1.00  0.00     0.043 C 
BRANCH  29  31
HETATM   31  C6  UNL     1      -8.098  44.212 -29.937  1.00  0.00     0.037 C 
BRANCH  31  32
HETATM   32  C5  UNL     1      -6.923  43.739 -30.813  1.00  0.00     0.031 C 
BRANCH  32  33
HETATM   33  C4  UNL     1      -6.127  44.868 -31.413  1.00  0.00    -0.024 C 
HETATM   34  C2  UNL     1      -5.040  44.796 -32.207  1.00  0.00    -0.091 C 
HETATM   35  C1  UNL     1      -4.393  46.057 -32.724  1.00  0.00     0.042 C 
HETATM   36  C3  UNL     1      -4.359  43.532 -32.655  1.00  0.00     0.042 C 
ENDBRANCH  32  33
ENDBRANCH  31  32
ENDBRANCH  29  31
ENDBRANCH  27  28
ENDBRANCH  24  26
ENDBRANCH   1  23
BRANCH   6  37
HETATM   37  C25 UNL     1       1.208  54.380 -22.280  1.00  0.00     0.265 C 
HETATM   38  O2  UNL     1       1.660  54.598 -21.158  1.00  0.00    -0.302 OA
ENDBRANCH   6  37
TORSDOF 13
ENDMDL
