MODEL 1
REMARK minimizedAffinity -10.0553551
REMARK  7 active torsions:
REMARK  status: ('A' for Active; 'I' for Inactive)
REMARK    1  A    between atoms: C2_2  and  C4_4 
REMARK    2  A    between atoms: C4_4  and  C6_6 
REMARK    3  A    between atoms: C7_7  and  C8_8 
REMARK    4  A    between atoms: C8_8  and  C10_10 
REMARK    5  A    between atoms: C17_17  and  O1_18 
REMARK    6  A    between atoms: C22_23  and  O2_24 
REMARK    7  A    between atoms: C24_26  and  O3_27 
ROOT
HETATM    1  C10 UNL     1      -0.919  49.068 -20.158  1.00  0.00     0.004 C 
HETATM    2  C11 UNL     1      -1.550  47.707 -20.515  1.00  0.00     0.007 C 
HETATM    3  C12 UNL     1      -1.979  47.805 -21.985  1.00  0.00     0.009 C 
HETATM    4  C13 UNL     1      -1.551  49.205 -22.467  1.00  0.00     0.038 C 
HETATM    5  C14 UNL     1      -1.529  50.039 -21.189  1.00  0.00    -0.008 C 
HETATM    6  C15 UNL     1      -0.693  51.310 -21.450  1.00  0.00     0.016 C 
HETATM    7  C16 UNL     1      -0.614  51.690 -22.946  1.00  0.00     0.043 C 
HETATM    8  C17 UNL     1      -1.966  51.501 -23.674  1.00  0.00     0.103 C 
HETATM    9  C18 UNL     1      -1.991  51.812 -25.254  1.00  0.00     0.025 C 
HETATM   10  C19 UNL     1      -3.419  52.372 -25.609  1.00  0.00     0.022 C 
HETATM   11  C20 UNL     1      -0.998  52.939 -25.687  1.00  0.00     0.018 C 
HETATM   12  C21 UNL     1       0.471  52.530 -25.845  1.00  0.00     0.033 C 
HETATM   13  C22 UNL     1       0.662  51.244 -26.639  1.00  0.00     0.121 C 
HETATM   14  C23 UNL     1      -0.248  50.112 -26.155  1.00  0.00     0.074 C 
HETATM   15  C24 UNL     1      -1.729  50.536 -26.131  1.00  0.00     0.088 C 
HETATM   16  C25 UNL     1      -2.606  49.395 -25.710  1.00  0.00     0.010 C 
HETATM   17  C26 UNL     1      -3.026  49.210 -24.452  1.00  0.00     0.013 C 
HETATM   18  C27 UNL     1      -2.552  50.037 -23.297  1.00  0.00     0.115 C 
HETATM   19  O4  UNL     1      -3.634  50.209 -22.358  1.00  0.00    -0.372 OA
HETATM   20  C28 UNL     1      -3.037  50.350 -21.048  1.00  0.00     0.179 C 
ENDROOT
BRANCH   1  21
HETATM   21  C8  UNL     1      -0.949  49.390 -18.642  1.00  0.00     0.009 C 
HETATM   22  C9  UNL     1      -2.329  49.557 -18.004  1.00  0.00     0.014 C 
BRANCH  21  23
HETATM   23  C7  UNL     1      -0.122  50.616 -18.315  1.00  0.00    -0.026 C 
HETATM   24  C6  UNL     1       0.380  50.878 -17.098  1.00  0.00    -0.026 C 
BRANCH  24  25
HETATM   25  C4  UNL     1       1.205  52.103 -16.773  1.00  0.00     0.007 C 
HETATM   26  C5  UNL     1       1.470  52.886 -18.064  1.00  0.00     0.014 C 
BRANCH  25  27
HETATM   27  C2  UNL     1       2.517  51.783 -16.004  1.00  0.00    -0.015 C 
HETATM   28  C1  UNL     1       2.330  51.563 -14.500  1.00  0.00     0.010 C 
HETATM   29  C3  UNL     1       3.580  52.865 -16.235  1.00  0.00     0.010 C 
ENDBRANCH  25  27
ENDBRANCH  24  25
ENDBRANCH  21  23
ENDBRANCH   1  21
BRANCH   8  30
HETATM   30  O1  UNL     1      -2.782  52.529 -23.031  1.00  0.00    -0.385 OA
HETATM   31  H28 UNL     1      -2.442  53.402 -23.285  1.00  0.00     0.210 HD
ENDBRANCH   8  30
BRANCH  15  32
HETATM   32  O3  UNL     1      -2.130  50.792 -27.487  1.00  0.00    -0.385 OA
HETATM   33  H40 UNL     1      -1.354  51.153 -27.964  1.00  0.00     0.211 HD
ENDBRANCH  15  32
BRANCH  13  34
HETATM   34  O2  UNL     1       0.365  51.512 -28.014  1.00  0.00    -0.395 OA
HETATM   35  H37 UNL     1       1.069  52.095 -28.354  1.00  0.00     0.210 HD
ENDBRANCH  13  34
TORSDOF 7
ENDMDL
