MODEL 1
REMARK minimizedAffinity -7.80890322
REMARK CNNscore 0.394760638
REMARK CNNaffinity 5.91655016
REMARK  2 active torsions:
REMARK  status: ('A' for Active; 'I' for Inactive)
REMARK    1  A    between atoms: C3_4  and  C4_5 
REMARK       I    between atoms: N3_16  and  C13_17 
REMARK       I    between atoms: C13_17  and  N4_19 
REMARK    2  A    between atoms: N4_19  and  C14_20 
ROOT
HETATM    1  C4  UNL     1       7.440  57.390  -5.072  1.00  0.00    -0.020 A 
HETATM    2  C5  UNL     1       6.708  57.888  -3.983  1.00  0.00     0.015 A 
HETATM    3  C6  UNL     1       5.308  57.937  -4.014  1.00  0.00     0.033 A 
HETATM    4  C7  UNL     1       4.620  57.505  -5.146  1.00  0.00     0.068 A 
HETATM    5  N2  UNL     1       3.214  57.585  -5.150  1.00  0.00    -0.325 N 
HETATM    6  C8  UNL     1       2.496  57.757  -6.315  1.00  0.00     0.222 C 
HETATM    7  O1  UNL     1       2.796  58.547  -7.205  1.00  0.00    -0.273 OA
HETATM    8  C9  UNL     1       1.294  56.842  -6.397  1.00  0.00     0.108 C 
HETATM    9  C10 UNL     1       1.003  56.422  -7.846  1.00  0.00     0.001 C 
HETATM   10  C11 UNL     1      -0.298  55.592  -7.928  1.00  0.00     0.025 C 
HETATM   11  C12 UNL     1      -0.146  54.221  -8.569  1.00  0.00     0.128 C 
HETATM   12  N3  UNL     1       0.601  54.239  -9.820  1.00  0.00    -0.334 N 
HETATM   13  C13 UNL     1       0.447  53.141 -10.669  1.00  0.00     0.322 C 
HETATM   14  O2  UNL     1      -0.192  52.152 -10.317  1.00  0.00    -0.247 OA
HETATM   15  N4  UNL     1       1.047  53.289 -11.899  1.00  0.00    -0.309 N 
HETATM   16  C20 UNL     1       1.611  55.288  -9.994  1.00  0.00     0.132 C 
HETATM   17  C21 UNL     1       2.184  55.810  -8.659  1.00  0.00     0.010 C 
HETATM   18  C22 UNL     1       3.063  54.708  -8.010  1.00  0.00     0.033 C 
HETATM   19  C23 UNL     1       4.074  55.123  -6.935  1.00  0.00     0.176 C 
HETATM   20  O3  UNL     1       4.739  56.338  -7.295  1.00  0.00    -0.349 OA
HETATM   21  C24 UNL     1       5.342  56.931  -6.209  1.00  0.00     0.096 A 
HETATM   22  C25 UNL     1       6.740  56.911  -6.187  1.00  0.00     0.051 A 
HETATM   23  H7  UNL     1       2.723  57.704  -4.275  1.00  0.00     0.169 HD
HETATM   24  H15 UNL     1       1.223  54.241 -12.176  1.00  0.00     0.170 HD
ENDROOT
BRANCH  15  25
HETATM   25  C14 UNL     1       1.206  52.311 -12.901  1.00  0.00     0.037 A 
HETATM   26  C15 UNL     1       0.248  52.042 -13.880  1.00  0.00     0.029 A 
HETATM   27  C16 UNL     1       0.464  51.040 -14.832  1.00  0.00     0.004 A 
HETATM   28  C17 UNL     1       1.641  50.296 -14.811  1.00  0.00     0.024 A 
HETATM   29  C18 UNL     1       2.597  50.556 -13.834  1.00  0.00     0.036 A 
HETATM   30 CL1  UNL     1       4.049  49.631 -13.793  1.00  0.00    -0.084 Cl
HETATM   31  C19 UNL     1       2.385  51.554 -12.882  1.00  0.00     0.053 A 
ENDBRANCH  15  25
BRANCH   1  32
HETATM   32  C3  UNL     1       8.896  57.373  -5.027  1.00  0.00     0.008 A 
HETATM   33  C2  UNL     1       9.701  58.416  -4.618  1.00  0.00     0.123 A 
HETATM   34  N1  UNL     1      10.990  57.980  -4.733  1.00  0.00    -0.307 N 
HETATM   35  C1  UNL     1      12.187  58.716  -4.414  1.00  0.00     0.177 C 
HETATM   36  N5  UNL     1      11.091  56.727  -5.206  1.00  0.00    -0.310 N 
HETATM   37  C26 UNL     1       9.819  56.356  -5.375  1.00  0.00     0.120 A 
ATOM     38  H5  UNL     1      11.937  56.189  -5.391  1.00  0.00     0.186 HD
ENDBRANCH   1  32
TORSDOF 2
ENDMDL
