MODEL 1
REMARK minimizedAffinity -9.97506046
REMARK  6 active torsions:
REMARK  status: ('A' for Active; 'I' for Inactive)
REMARK    1  A    between atoms: C2_2  and  C30_32 
REMARK    2  A    between atoms: C3_3  and  C4_4 
REMARK    3  A    between atoms: C4_4  and  C5_5 
REMARK    4  A    between atoms: C5_5  and  C6_6 
REMARK    5  A    between atoms: C6_6  and  C8_8 
REMARK    6  A    between atoms: C30_32  and  O4_34 
ROOT
HETATM    1  C8  UNL     1      -5.072   6.943  14.589  1.00  0.00    -0.002 C 
HETATM    2  C9  UNL     1      -5.429   8.109  13.624  1.00  0.00     0.007 C 
HETATM    3  C10 UNL     1      -4.121   8.536  12.929  1.00  0.00     0.015 C 
HETATM    4  C11 UNL     1      -2.999   7.912  13.778  1.00  0.00    -0.005 C 
HETATM    5  C12 UNL     1      -2.764   8.859  14.999  1.00  0.00     0.021 C 
HETATM    6  C13 UNL     1      -1.617   7.702  13.183  1.00  0.00    -0.000 C 
HETATM    7  C14 UNL     1      -0.790   6.709  13.594  1.00  0.00    -0.060 C 
HETATM    8  C15 UNL     1      -1.300   5.694  14.642  1.00  0.00     0.036 C 
HETATM    9  C16 UNL     1      -2.749   5.846  15.161  1.00  0.00     0.015 C 
HETATM   10  C17 UNL     1      -3.651   6.515  14.118  1.00  0.00    -0.028 C 
HETATM   11  C18 UNL     1      -3.755   5.574  12.882  1.00  0.00     0.016 C 
HETATM   12  C19 UNL     1       0.699   6.568  13.132  1.00  0.00    -0.014 C 
HETATM   13  C20 UNL     1       1.547   6.827  14.410  1.00  0.00     0.020 C 
HETATM   14  C21 UNL     1       1.010   5.126  12.634  1.00  0.00     0.021 C 
HETATM   15  C22 UNL     1       0.855   4.960  11.133  1.00  0.00     0.080 C 
HETATM   16  C23 UNL     1       1.869   5.813  10.407  1.00  0.00     0.135 C 
HETATM   17  O1  UNL     1       2.338   5.435   9.331  1.00  0.00    -0.297 OA
HETATM   18  C24 UNL     1       2.274   7.149  11.046  1.00  0.00     0.018 C 
HETATM   19  C25 UNL     1       3.634   6.953  11.745  1.00  0.00     0.023 C 
HETATM   20  C26 UNL     1       2.520   8.172   9.910  1.00  0.00     0.023 C 
HETATM   21  C27 UNL     1       1.142   7.638  12.036  1.00  0.00     0.020 C 
HETATM   22  C28 UNL     1      -0.058   8.185  11.247  1.00  0.00     0.090 C 
HETATM   23  C29 UNL     1      -1.136   8.666  12.167  1.00  0.00     0.157 C 
HETATM   24  O2  UNL     1      -1.632   9.782  12.047  1.00  0.00    -0.293 OA
ENDROOT
BRANCH   1  25
HETATM   25  C6  UNL     1      -6.238   5.935  14.813  1.00  0.00    -0.014 C 
HETATM   26  C7  UNL     1      -6.827   5.851  16.226  1.00  0.00     0.010 C 
BRANCH  25  27
HETATM   27  C5  UNL     1      -7.359   6.123  13.766  1.00  0.00     0.008 C 
BRANCH  27  28
HETATM   28  C4  UNL     1      -7.640   4.860  12.943  1.00  0.00     0.028 C 
BRANCH  28  29
HETATM   29  C3  UNL     1      -6.370   4.287  12.374  1.00  0.00    -0.013 C 
HETATM   30  C2  UNL     1      -6.112   3.014  12.015  1.00  0.00     0.008 C 
HETATM   31  C1  UNL     1      -4.815   2.623  11.366  1.00  0.00     0.055 C 
BRANCH  30  32
HETATM   32  C30 UNL     1      -7.052   1.883  12.189  1.00  0.00     0.171 C 
HETATM   33  O3  UNL     1      -8.008   1.873  12.945  1.00  0.00    -0.646 OA
BRANCH  32  34
HETATM   34  O4  UNL     1      -6.819   0.863  11.350  1.00  0.00    -0.773 OA
HETATM   35  H44 UNL     1      -7.535   0.227  11.556  1.00  0.00     0.167 HD
ENDBRANCH  32  34
ENDBRANCH  30  32
ENDBRANCH  28  29
ENDBRANCH  27  28
ENDBRANCH  25  27
ENDBRANCH   1  25
TORSDOF 6
ENDMDL
