MODEL 1
REMARK minimizedAffinity -9.56940365
REMARK  4 active torsions:
REMARK  status: ('A' for Active; 'I' for Inactive)
REMARK    1  A    between atoms: C4_4  and  C5_5 
REMARK    2  A    between atoms: C5_5  and  C6_6 
REMARK    3  A    between atoms: C6_6  and  C7_7 
REMARK    4  A    between atoms: C7_7  and  C9_9 
ROOT
HETATM    1  C9  UNL     1      -2.567   7.676  14.752  1.00  0.00    -0.001 C 
HETATM    2  C10 UNL     1      -1.635   8.465  15.717  1.00  0.00     0.007 C 
HETATM    3  C11 UNL     1      -0.235   8.520  15.082  1.00  0.00     0.024 C 
HETATM    4  C12 UNL     1      -0.414   7.892  13.719  1.00  0.00     0.092 C 
HETATM    5  C13 UNL     1      -0.808   8.945  12.651  1.00  0.00     0.272 C 
HETATM    6  O1  UNL     1      -1.376  10.009  12.822  1.00  0.00    -0.264 OA
HETATM    7  O2  UNL     1      -0.393   8.484  11.414  1.00  0.00    -0.305 OA
HETATM    8  C14 UNL     1       0.252   7.198  11.584  1.00  0.00     0.113 C 
HETATM    9  C15 UNL     1      -0.878   6.124  11.521  1.00  0.00     0.043 C 
HETATM   10  C16 UNL     1      -2.054   6.402  12.497  1.00  0.00     0.014 C 
HETATM   11  C17 UNL     1      -1.558   6.841  13.899  1.00  0.00    -0.020 C 
HETATM   12  C18 UNL     1      -1.098   5.582  14.677  1.00  0.00     0.017 C 
HETATM   13  C19 UNL     1       0.736   7.314  12.992  1.00  0.00     0.137 A 
HETATM   14  O3  UNL     1       1.591   6.348  13.568  1.00  0.00    -0.364 OA
HETATM   15  C20 UNL     1       2.167   7.650  13.315  1.00  0.00     0.162 A 
HETATM   16  C21 UNL     1       3.197   7.678  12.236  1.00  0.00     0.041 C 
HETATM   17  C22 UNL     1       2.588   8.002  10.854  1.00  0.00     0.010 C 
HETATM   18  C23 UNL     1       3.684   8.043   9.753  1.00  0.00     0.056 C 
HETATM   19  C24 UNL     1       4.770   9.087  10.032  1.00  0.00     0.018 C 
HETATM   20  C25 UNL     1       3.045   8.310   8.392  1.00  0.00     0.131 C 
HETATM   21  O4  UNL     1       3.479   9.148   7.602  1.00  0.00    -0.298 OA
HETATM   22  C26 UNL     1       1.897   7.413   8.005  1.00  0.00     0.079 C 
HETATM   23  C27 UNL     1       0.845   7.419   9.103  1.00  0.00     0.020 C 
HETATM   24  C28 UNL     1       1.394   7.027  10.510  1.00  0.00    -0.004 C 
HETATM   25  C29 UNL     1       1.871   5.552  10.455  1.00  0.00     0.019 C 
ENDROOT
BRANCH   1  26
HETATM   26  C7  UNL     1      -3.717   6.950  15.504  1.00  0.00    -0.014 C 
HETATM   27  C8  UNL     1      -3.539   5.429  15.542  1.00  0.00     0.010 C 
BRANCH  26  28
HETATM   28  C6  UNL     1      -5.140   7.314  14.992  1.00  0.00     0.008 C 
BRANCH  28  29
HETATM   29  C5  UNL     1      -5.543   6.847  13.583  1.00  0.00     0.028 C 
BRANCH  29  30
HETATM   30  C4  UNL     1      -6.464   5.661  13.565  1.00  0.00    -0.025 C 
HETATM   31  C2  UNL     1      -6.232   4.430  13.070  1.00  0.00    -0.091 C 
HETATM   32  C1  UNL     1      -4.958   3.972  12.416  1.00  0.00     0.042 C 
HETATM   33  C3  UNL     1      -7.303   3.370  13.132  1.00  0.00     0.042 C 
ENDBRANCH  29  30
ENDBRANCH  28  29
ENDBRANCH  26  28
ENDBRANCH   1  26
TORSDOF 4
ENDMDL
