MODEL 1
REMARK minimizedAffinity -7.98592949
REMARK CNNscore 0.583835661
REMARK CNNaffinity 5.98127317
REMARK  10 active torsions:
REMARK  status: ('A' for Active; 'I' for Inactive)
REMARK    1  A    between atoms: C3_3  and  O1_4 
REMARK    2  A    between atoms: N1_14  and  O2_16 
REMARK    3  A    between atoms: O2_16  and  C13_17 
REMARK    4  A    between atoms: C13_17  and  C14_18 
REMARK       I    between atoms: C14_18  and  N2_20 
REMARK    5  A    between atoms: N2_20  and  C15_21 
REMARK    6  A    between atoms: C15_21  and  C16_22 
REMARK       I    between atoms: C16_22  and  N3_24 
REMARK    7  A    between atoms: N3_24  and  C17_25 
REMARK    8  A    between atoms: C17_25  and  C18_26 
REMARK    9  A    between atoms: C17_25  and  C19_29 
REMARK   10  A    between atoms: C18_26  and  O6_28 
ROOT
HETATM    1  C1  UNL     1      -1.224  50.880 -23.467  1.00  0.00     0.015 C 
HETATM    2  C2  UNL     1      -1.155  50.513 -22.326  1.00  0.00    -0.078 C 
HETATM    3  C3  UNL     1      -0.995  50.084 -20.919  1.00  0.00     0.128 C 
HETATM    4  C4  UNL     1      -0.629  48.602 -20.849  1.00  0.00     0.052 C 
HETATM    5  C5  UNL     1      -1.973  47.899 -20.976  1.00  0.00     0.010 C 
HETATM    6  C6  UNL     1      -2.964  48.764 -20.163  1.00  0.00     0.002 C 
HETATM    7  C7  UNL     1      -4.377  48.735 -20.772  1.00  0.00    -0.004 C 
HETATM    8  C8  UNL     1      -5.471  49.011 -19.717  1.00  0.00     0.010 C 
HETATM    9  C9  UNL     1      -6.827  49.416 -20.318  1.00  0.00     0.035 C 
HETATM   10  C10 UNL     1      -6.972  48.966 -21.749  1.00  0.00    -0.069 C 
HETATM   11  C11 UNL     1      -7.962  48.127 -22.109  1.00  0.00     0.030 C 
HETATM   12  C12 UNL     1      -8.109  47.657 -23.516  1.00  0.00     0.032 C 
HETATM   13  N1  UNL     1      -9.149  47.058 -24.010  1.00  0.00    -0.271 N 
ATOM     14  H1  UNL     1      -9.244  46.804 -24.993  1.00  0.00     0.194 HD
HETATM   15  C22 UNL     1      -6.969  47.923 -24.485  1.00  0.00     0.060 C 
HETATM   16  C23 UNL     1      -5.683  48.344 -23.784  1.00  0.00     0.020 C 
HETATM   17  C24 UNL     1      -5.897  49.460 -22.720  1.00  0.00    -0.016 C 
HETATM   18  C25 UNL     1      -6.398  50.738 -23.437  1.00  0.00     0.020 C 
HETATM   19  C26 UNL     1      -4.518  49.695 -21.972  1.00  0.00     0.002 C 
HETATM   20  C27 UNL     1      -4.235  51.152 -21.546  1.00  0.00     0.007 C 
HETATM   21  C28 UNL     1      -3.225  51.349 -20.405  1.00  0.00     0.014 C 
HETATM   22  C29 UNL     1      -2.295  50.173 -20.044  1.00  0.00     0.003 C 
HETATM   23  C30 UNL     1      -1.901  50.384 -18.548  1.00  0.00     0.020 C 
ENDROOT
BRANCH   3  24
HETATM   24  O1  UNL     1       0.065  50.855 -20.361  1.00  0.00    -0.377 OA
HETATM   25  H2  UNL     1       0.807  50.805 -20.988  1.00  0.00     0.211 HD
ENDBRANCH   3  24
BRANCH  13  26
HETATM   26  O2  UNL     1     -10.128  46.798 -23.036  1.00  0.00    -0.271 OA
BRANCH  26  27
HETATM   27  C13 UNL     1     -11.078  45.886 -23.574  1.00  0.00     0.303 C 
BRANCH  27  28
HETATM   28  C14 UNL     1     -11.995  46.561 -24.594  1.00  0.00     0.244 C 
HETATM   29  O3  UNL     1     -11.772  47.656 -25.106  1.00  0.00    -0.271 OA
HETATM   30  N2  UNL     1     -13.153  45.860 -24.851  1.00  0.00    -0.350 N 
HETATM   31  H16 UNL     1     -13.242  44.882 -24.578  1.00  0.00     0.163 HD
BRANCH  30  32
HETATM   32  C15 UNL     1     -14.191  46.399 -25.709  1.00  0.00     0.225 C 
BRANCH  32  33
HETATM   33  C16 UNL     1     -15.361  46.868 -24.845  1.00  0.00     0.236 C 
HETATM   34  O4  UNL     1     -15.341  47.944 -24.248  1.00  0.00    -0.272 OA
HETATM   35  N3  UNL     1     -16.409  45.969 -24.767  1.00  0.00    -0.345 N 
HETATM   36  H19 UNL     1     -16.503  45.349 -25.563  1.00  0.00     0.163 HD
BRANCH  35  37
HETATM   37  C17 UNL     1     -17.667  46.368 -24.124  1.00  0.00     0.185 C 
BRANCH  37  38
HETATM   38  C18 UNL     1     -18.830  46.385 -25.134  1.00  0.00     0.163 C 
HETATM   39  O5  UNL     1     -19.931  46.889 -24.959  1.00  0.00    -0.648 OA
BRANCH  38  40
HETATM   40  O6  UNL     1     -18.574  45.705 -26.275  1.00  0.00    -0.775 OA
HETATM   41  H21 UNL     1     -19.399  45.817 -26.798  1.00  0.00     0.167 HD
ENDBRANCH  38  40
ENDBRANCH  37  38
BRANCH  37  42
HETATM   42  C19 UNL     1     -18.012  45.455 -22.925  1.00  0.00     0.010 C 
HETATM   43  C20 UNL     1     -18.621  46.212 -21.737  1.00  0.00     0.012 C 
HETATM   44  C21 UNL     1     -18.951  44.316 -23.349  1.00  0.00     0.012 C 
ENDBRANCH  37  42
ENDBRANCH  35  37
ENDBRANCH  32  33
ENDBRANCH  30  32
ENDBRANCH  27  28
ENDBRANCH  26  27
ENDBRANCH  13  26
TORSDOF 10
ENDMDL
