MODEL 1
REMARK minimizedAffinity -6.26577187
REMARK CNNscore 0.564020753
REMARK CNNaffinity 6.32680368
REMARK  7 active torsions:
REMARK  status: ('A' for Active; 'I' for Inactive)
REMARK    1  A    between atoms: C2_2  and  C4_4 
REMARK    2  A    between atoms: C7_7  and  O1_9 
REMARK    3  A    between atoms: C9_10  and  C10_11 
REMARK    4  A    between atoms: C11_12  and  C12_13 
REMARK    5  A    between atoms: C14_15  and  C15_16 
REMARK    6  A    between atoms: C24_26  and  C26_28 
REMARK    7  A    between atoms: C29_32  and  O4_34 
ROOT
HETATM    1  C15 UNL     1      -2.635  15.949   1.229  1.00  0.00     0.149 C 
HETATM    2  C16 UNL     1      -1.669  16.040   2.413  1.00  0.00     0.054 C 
HETATM    3  C17 UNL     1      -0.471  15.109   2.072  1.00  0.00     0.050 C 
HETATM    4  C18 UNL     1      -0.748  14.806   0.587  1.00  0.00     0.272 C 
HETATM    5  O2  UNL     1      -0.167  15.811  -0.239  1.00  0.00    -0.360 OA
HETATM    6  C19 UNL     1       1.125  15.478  -0.738  1.00  0.00     0.171 C 
HETATM    7  C20 UNL     1       2.049  14.758   0.239  1.00  0.00     0.027 C 
HETATM    8  C21 UNL     1       2.156  15.373   1.633  1.00  0.00     0.012 C 
HETATM    9  C22 UNL     1       0.860  15.913   2.287  1.00  0.00     0.032 C 
HETATM   10  C23 UNL     1       1.110  16.185   3.785  1.00  0.00    -0.066 C 
HETATM   11  C24 UNL     1       1.288  17.437   4.286  1.00  0.00    -0.021 C 
HETATM   12  C25 UNL     1       1.291  18.717   3.486  1.00  0.00     0.052 C 
HETATM   13  C27 UNL     1       1.086  14.913   4.614  1.00  0.00     0.038 C 
HETATM   14  C28 UNL     1      -0.201  14.112   4.415  1.00  0.00     0.042 C 
HETATM   15  C29 UNL     1      -0.495  13.801   2.935  1.00  0.00     0.067 C 
HETATM   16  C30 UNL     1      -1.797  12.987   2.840  1.00  0.00     0.047 C 
HETATM   17  O5  UNL     1      -2.174  14.858   0.439  1.00  0.00    -0.351 OA
ENDROOT
BRANCH   1  18
HETATM   18  C14 UNL     1      -4.070  15.773   1.661  1.00  0.00     0.011 C 
HETATM   19  C12 UNL     1      -5.009  16.711   1.920  1.00  0.00    -0.064 C 
HETATM   20  C13 UNL     1      -4.738  18.194   1.879  1.00  0.00     0.048 C 
BRANCH  19  21
HETATM   21  C11 UNL     1      -6.348  16.259   2.293  1.00  0.00     0.003 C 
HETATM   22  C10 UNL     1      -7.146  16.797   3.233  1.00  0.00    -0.018 C 
BRANCH  22  23
HETATM   23  C9  UNL     1      -8.531  16.299   3.599  1.00  0.00     0.050 C 
HETATM   24  C4  UNL     1      -8.630  15.736   5.053  1.00  0.00     0.024 C 
HETATM   25  C5  UNL     1      -9.684  14.625   4.961  1.00  0.00     0.013 C 
HETATM   26  C6  UNL     1      -9.391  13.993   3.606  1.00  0.00     0.039 C 
HETATM   27  C7  UNL     1      -9.169  15.200   2.687  1.00  0.00     0.062 C 
HETATM   28  C8  UNL     1      -8.420  14.809   1.414  1.00  0.00     0.046 C 
BRANCH  24  29
HETATM   29  C2  UNL     1      -8.894  16.788   6.120  1.00  0.00    -0.088 C 
HETATM   30  C1  UNL     1      -7.886  17.507   6.649  1.00  0.00     0.014 C 
HETATM   31  C3  UNL     1     -10.312  17.021   6.568  1.00  0.00     0.043 C 
ENDBRANCH  24  29
BRANCH  27  32
HETATM   32  O1  UNL     1     -10.469  15.661   2.276  1.00  0.00    -0.390 OA
HETATM   33  H14 UNL     1     -10.338  16.415   1.675  1.00  0.00     0.210 HD
ENDBRANCH  27  32
ENDBRANCH  22  23
ENDBRANCH  19  21
ENDBRANCH   1  18
BRANCH  15  34
HETATM   34  O4  UNL     1       0.551  12.932   2.474  1.00  0.00    -0.389 OA
HETATM   35  H44 UNL     1       0.518  12.105   2.987  1.00  0.00     0.210 HD
ENDBRANCH  15  34
BRANCH  11  36
HETATM   36  C26 UNL     1       1.519  17.689   5.747  1.00  0.00     0.265 C 
HETATM   37  O3  UNL     1       2.638  17.692   6.247  1.00  0.00    -0.302 OA
ENDBRANCH  11  36
TORSDOF 7
ENDMDL
