MODEL 1
REMARK minimizedAffinity -9.04614544
REMARK CNNscore 0.549621224
REMARK CNNaffinity 7.21560287
REMARK  13 active torsions:
REMARK  status: ('A' for Active; 'I' for Inactive)
REMARK    1  A    between atoms: C19_20  and  O2_21 
REMARK    2  A    between atoms: C19_20  and  C20_22 
REMARK    3  A    between atoms: C20_22  and  C21_24 
REMARK    4  A    between atoms: C21_24  and  O4_25 
REMARK    5  A    between atoms: O4_25  and  C22_26 
REMARK    6  A    between atoms: C22_26  and  C23_28 
REMARK    7  A    between atoms: C23_28  and  C24_29 
REMARK    8  A    between atoms: C24_29  and  C25_30 
REMARK       I    between atoms: C25_30  and  N1_32 
REMARK    9  A    between atoms: N1_32  and  C26_33 
REMARK   10  A    between atoms: C26_33  and  C27_34 
REMARK   11  A    between atoms: C26_33  and  C36_44 
REMARK   12  A    between atoms: C27_34  and  C28_35 
REMARK   13  A    between atoms: C36_44  and  O8_46 
ROOT
HETATM    1  C21 UNL     1       0.725   9.691  15.418  1.00  0.00     0.260 C 
ENDROOT
BRANCH   1   2
HETATM    2  C20 UNL     1       0.822   8.827  14.148  1.00  0.00     0.185 C 
HETATM    3  O3  UNL     1       1.513   9.240  13.206  1.00  0.00    -0.292 OA
BRANCH   2   4
HETATM    4  C19 UNL     1       0.164   7.410  14.105  1.00  0.00     0.128 C 
HETATM    5  C14 UNL     1      -1.278   7.387  13.488  1.00  0.00    -0.002 C 
HETATM    6  C13 UNL     1      -1.730   5.939  13.147  1.00  0.00     0.013 C 
HETATM    7  C15 UNL     1      -1.358   8.216  12.194  1.00  0.00     0.019 C 
HETATM    8  C16 UNL     1      -2.133   7.976  14.643  1.00  0.00     0.002 C 
HETATM    9  C12 UNL     1      -3.246   5.780  12.987  1.00  0.00     0.007 C 
HETATM   10  C11 UNL     1      -3.991   6.213  14.263  1.00  0.00     0.002 C 
HETATM   11  C2  UNL     1      -5.555   5.945  14.294  1.00  0.00    -0.016 C 
HETATM   12  C10 UNL     1      -3.653   7.691  14.600  1.00  0.00    -0.004 C 
HETATM   13  C1  UNL     1      -5.982   4.854  13.289  1.00  0.00     0.020 C 
HETATM   14  C3  UNL     1      -5.931   5.481  15.733  1.00  0.00     0.022 C 
HETATM   15  C7  UNL     1      -6.347   7.215  13.994  1.00  0.00    -0.068 C 
HETATM   16  C4  UNL     1      -7.435   5.356  15.965  1.00  0.00     0.084 C 
HETATM   17  C5  UNL     1      -8.173   6.599  15.535  1.00  0.00     0.149 C 
HETATM   18  O1  UNL     1      -9.301   6.862  15.947  1.00  0.00    -0.293 OA
HETATM   19  C6  UNL     1      -7.531   7.510  14.558  1.00  0.00     0.053 C 
HETATM   20  C8  UNL     1      -5.679   8.184  13.065  1.00  0.00     0.035 C 
HETATM   21  C9  UNL     1      -4.390   8.708  13.695  1.00  0.00     0.010 C 
HETATM   22  C17 UNL     1      -1.482   7.421  15.929  1.00  0.00     0.009 C 
HETATM   23  C18 UNL     1      -0.082   6.938  15.553  1.00  0.00     0.047 C 
BRANCH   4  24
HETATM   24  O2  UNL     1       1.005   6.450  13.479  1.00  0.00    -0.381 OA
HETATM   25  H27 UNL     1       1.819   6.404  14.022  1.00  0.00     0.211 HD
ENDBRANCH   4  24
ENDBRANCH   2   4
ENDBRANCH   1   2
BRANCH   1  26
HETATM   26  O4  UNL     1       1.461   9.444  16.603  1.00  0.00    -0.314 OA
BRANCH  26  27
HETATM   27  C22 UNL     1       2.740   9.899  16.595  1.00  0.00     0.259 C 
HETATM   28  O5  UNL     1       3.673   9.338  16.035  1.00  0.00    -0.265 OA
BRANCH  27  29
HETATM   29  C23 UNL     1       2.852  11.205  17.328  1.00  0.00     0.120 C 
BRANCH  29  30
HETATM   30  C24 UNL     1       2.096  11.148  18.646  1.00  0.00     0.112 C 
BRANCH  30  31
HETATM   31  C25 UNL     1       3.002  10.704  19.774  1.00  0.00     0.218 C 
HETATM   32  O6  UNL     1       4.218  10.852  19.759  1.00  0.00    -0.274 OA
HETATM   33  N1  UNL     1       2.321  10.112  20.817  1.00  0.00    -0.346 N 
HETATM   34  H34 UNL     1       1.339  10.350  20.895  1.00  0.00     0.163 HD
BRANCH  33  35
HETATM   35  C26 UNL     1       2.990   9.816  22.101  1.00  0.00     0.186 C 
BRANCH  35  36
HETATM   36  C27 UNL     1       3.088  11.025  23.047  1.00  0.00     0.077 C 
BRANCH  36  37
HETATM   37  C28 UNL     1       4.443  11.675  23.044  1.00  0.00    -0.028 A 
HETATM   38  C29 UNL     1       5.663  11.023  23.015  1.00  0.00     0.096 A 
HETATM   39  N2  UNL     1       6.656  11.966  23.000  1.00  0.00    -0.365 N 
HETATM   40  C30 UNL     1       6.115  13.229  23.017  1.00  0.00     0.042 A 
HETATM   41  H39 UNL     1       7.647  11.773  22.976  1.00  0.00     0.165 HD
HETATM   42  C31 UNL     1       6.745  14.481  23.006  1.00  0.00     0.030 A 
HETATM   43  C35 UNL     1       4.727  13.079  23.044  1.00  0.00    -0.002 A 
HETATM   44  C32 UNL     1       5.930  15.617  23.026  1.00  0.00     0.002 A 
HETATM   45  C33 UNL     1       4.543  15.503  23.053  1.00  0.00     0.001 A 
HETATM   46  C34 UNL     1       3.932  14.244  23.063  1.00  0.00     0.014 A 
ENDBRANCH  36  37
ENDBRANCH  35  36
BRANCH  35  47
HETATM   47  C36 UNL     1       2.345   8.595  22.777  1.00  0.00     0.163 C 
HETATM   48  O7  UNL     1       1.784   7.655  22.239  1.00  0.00    -0.648 OA
BRANCH  47  49
HETATM   49  O8  UNL     1       2.332   8.674  24.131  1.00  0.00    -0.775 OA
HETATM   50  H44 UNL     1       1.882   7.841  24.392  1.00  0.00     0.167 HD
ENDBRANCH  47  49
ENDBRANCH  35  47
ENDBRANCH  33  35
ENDBRANCH  30  31
ENDBRANCH  29  30
ENDBRANCH  27  29
ENDBRANCH  26  27
ENDBRANCH   1  26
TORSDOF 13
ENDMDL
