MODEL 1
REMARK minimizedAffinity -9.37747765
REMARK  8 active torsions:
REMARK  status: ('A' for Active; 'I' for Inactive)
REMARK    1  A    between atoms: C2_2  and  C3_3 
REMARK    2  A    between atoms: C2_2  and  C9_11 
REMARK    3  A    between atoms: C3_3  and  C4_4 
REMARK    4  A    between atoms: C4_4  and  C5_5 
REMARK    5  A    between atoms: C6_6  and  C7_7 
REMARK    6  A    between atoms: C6_6  and  C8_9 
REMARK    7  A    between atoms: C7_7  and  O1_8 
REMARK    8  A    between atoms: C8_9  and  O2_10 
ROOT
HETATM    1  C9  UNL     1      -2.198   6.014  12.911  1.00  0.00    -0.001 C 
HETATM    2  C10 UNL     1      -2.110   5.118  11.644  1.00  0.00     0.007 C 
HETATM    3  C11 UNL     1      -0.649   5.158  11.163  1.00  0.00     0.015 C 
HETATM    4  C12 UNL     1       0.153   5.724  12.352  1.00  0.00    -0.004 C 
HETATM    5  C13 UNL     1       0.422   4.531  13.322  1.00  0.00     0.021 C 
HETATM    6  C14 UNL     1       1.520   6.369  12.147  1.00  0.00     0.007 C 
HETATM    7  C15 UNL     1       2.020   7.312  12.989  1.00  0.00     0.007 C 
HETATM    8  C16 UNL     1       1.102   7.810  14.100  1.00  0.00     0.157 C 
HETATM    9  O3  UNL     1       1.492   8.638  14.921  1.00  0.00    -0.293 OA
HETATM   10  C17 UNL     1      -0.333   7.308  14.212  1.00  0.00     0.094 C 
HETATM   11  C18 UNL     1      -0.861   6.813  12.869  1.00  0.00    -0.022 C 
HETATM   12  C19 UNL     1      -0.987   8.028  11.902  1.00  0.00     0.017 C 
HETATM   13  C20 UNL     1       3.432   7.956  12.846  1.00  0.00    -0.007 C 
HETATM   14  C21 UNL     1       3.181   9.339  12.203  1.00  0.00     0.021 C 
HETATM   15  C22 UNL     1       4.181   8.135  14.199  1.00  0.00     0.022 C 
HETATM   16  C23 UNL     1       5.611   8.638  14.055  1.00  0.00     0.080 C 
HETATM   17  C24 UNL     1       6.437   7.742  13.170  1.00  0.00     0.135 C 
HETATM   18  O4  UNL     1       7.578   7.425  13.511  1.00  0.00    -0.297 OA
HETATM   19  C25 UNL     1       5.848   7.353  11.809  1.00  0.00     0.018 C 
HETATM   20  C26 UNL     1       6.625   6.104  11.312  1.00  0.00     0.023 C 
HETATM   21  C27 UNL     1       6.137   8.484  10.810  1.00  0.00     0.023 C 
HETATM   22  C28 UNL     1       4.333   6.987  11.987  1.00  0.00     0.021 C 
HETATM   23  C29 UNL     1       3.628   6.640  10.675  1.00  0.00     0.090 C 
HETATM   24  C30 UNL     1       2.342   5.917  10.978  1.00  0.00     0.157 C 
HETATM   25  O5  UNL     1       1.972   4.996  10.253  1.00  0.00    -0.293 OA
ENDROOT
BRANCH   1  26
HETATM   26  C2  UNL     1      -3.604   6.662  13.103  1.00  0.00    -0.014 C 
HETATM   27  C1  UNL     1      -3.685   8.189  13.180  1.00  0.00     0.010 C 
BRANCH  26  28
HETATM   28  C3  UNL     1      -4.481   5.954  14.169  1.00  0.00     0.008 C 
BRANCH  28  29
HETATM   29  C4  UNL     1      -5.776   5.293  13.682  1.00  0.00     0.028 C 
BRANCH  29  30
HETATM   30  C5  UNL     1      -5.476   4.185  12.708  1.00  0.00    -0.020 C 
HETATM   31  C6  UNL     1      -6.295   3.170  12.360  1.00  0.00    -0.037 C 
BRANCH  31  32
HETATM   32  C7  UNL     1      -7.711   3.008  12.853  1.00  0.00     0.200 C 
BRANCH  32  33
HETATM   33  O1  UNL     1      -8.158   1.686  12.580  1.00  0.00    -0.397 OA
HETATM   34  H12 UNL     1      -7.818   1.480  11.680  1.00  0.00     0.209 HD
ENDBRANCH  32  33
ENDBRANCH  31  32
BRANCH  31  35
HETATM   35  C8  UNL     1      -5.838   2.092  11.411  1.00  0.00     0.200 C 
BRANCH  35  36
HETATM   36  O2  UNL     1      -4.624   2.521  10.809  1.00  0.00    -0.397 OA
HETATM   37  H15 UNL     1      -4.296   1.769  10.284  1.00  0.00     0.209 HD
ENDBRANCH  35  36
ENDBRANCH  31  35
ENDBRANCH  29  30
ENDBRANCH  28  29
ENDBRANCH  26  28
ENDBRANCH   1  26
TORSDOF 8
ENDMDL
