MODEL 1
REMARK minimizedAffinity -9.53245258
REMARK  4 active torsions:
REMARK  status: ('A' for Active; 'I' for Inactive)
REMARK    1  A    between atoms: C4_4  and  C5_5 
REMARK    2  A    between atoms: C5_5  and  C6_7 
REMARK    3  A    between atoms: C6_7  and  C7_8 
REMARK    4  A    between atoms: C7_8  and  C8_9 
ROOT
HETATM    1  C8  UNL     1      -6.440   6.875  14.352  1.00  0.00     0.028 C 
HETATM    2  C9  UNL     1      -6.399   8.313  14.952  1.00  0.00     0.009 C 
HETATM    3  C10 UNL     1      -4.921   8.712  15.070  1.00  0.00     0.011 C 
HETATM    4  C11 UNL     1      -4.213   7.883  13.987  1.00  0.00    -0.032 C 
HETATM    5  C12 UNL     1      -4.567   8.548  12.611  1.00  0.00     0.016 C 
HETATM    6  C13 UNL     1      -4.941   6.523  14.179  1.00  0.00     0.001 C 
HETATM    7  C14 UNL     1      -4.534   5.559  13.066  1.00  0.00     0.006 C 
HETATM    8  C15 UNL     1      -3.011   5.339  13.071  1.00  0.00     0.006 C 
HETATM    9  C16 UNL     1      -2.172   6.652  13.029  1.00  0.00     0.003 C 
HETATM   10  C17 UNL     1      -0.601   6.422  12.892  1.00  0.00    -0.035 C 
HETATM   11  C18 UNL     1      -0.128   5.290  13.843  1.00  0.00     0.016 C 
HETATM   12  C19 UNL     1      -0.296   5.906  11.443  1.00  0.00     0.017 C 
HETATM   13  C20 UNL     1      -0.002   7.005  10.436  1.00  0.00     0.080 C 
HETATM   14  C21 UNL     1       1.215   7.803  10.840  1.00  0.00     0.135 C 
HETATM   15  O2  UNL     1       1.916   8.336   9.976  1.00  0.00    -0.297 OA
HETATM   16  C22 UNL     1       1.524   7.939  12.335  1.00  0.00     0.017 C 
HETATM   17  C23 UNL     1       2.599   6.895  12.695  1.00  0.00     0.023 C 
HETATM   18  C24 UNL     1       2.173   9.324  12.578  1.00  0.00     0.023 C 
HETATM   19  C25 UNL     1       0.198   7.763  13.178  1.00  0.00     0.009 C 
HETATM   20  C26 UNL     1      -0.727   9.002  13.033  1.00  0.00     0.007 C 
HETATM   21  C27 UNL     1      -1.879   9.015  14.029  1.00  0.00     0.011 C 
HETATM   22  C28 UNL     1      -2.638   7.669  14.152  1.00  0.00    -0.032 C 
HETATM   23  C29 UNL     1      -2.287   7.128  15.569  1.00  0.00     0.016 C 
ENDROOT
BRANCH   1  24
HETATM   24  C7  UNL     1      -7.238   5.863  15.186  1.00  0.00     0.093 A 
HETATM   25  C30 UNL     1      -8.489   6.334  15.925  1.00  0.00     0.207 A 
HETATM   26  O3  UNL     1      -7.239   6.117  16.600  1.00  0.00    -0.374 OA
BRANCH  24  27
HETATM   27  C6  UNL     1      -7.093   4.399  14.819  1.00  0.00     0.123 C 
BRANCH  27  28
HETATM   28  C5  UNL     1      -7.657   3.966  13.486  1.00  0.00     0.152 C 
HETATM   29  O1  UNL     1      -8.444   4.694  12.873  1.00  0.00    -0.293 OA
BRANCH  28  30
HETATM   30  C4  UNL     1      -7.239   2.698  12.812  1.00  0.00     0.052 C 
HETATM   31  C2  UNL     1      -6.397   2.425  11.797  1.00  0.00    -0.084 C 
HETATM   32  C1  UNL     1      -6.248   0.996  11.323  1.00  0.00     0.043 C 
HETATM   33  C3  UNL     1      -5.522   3.392  11.049  1.00  0.00     0.043 C 
ENDBRANCH  28  30
ENDBRANCH  27  28
ENDBRANCH  24  27
ENDBRANCH   1  24
TORSDOF 4
ENDMDL
