MODEL 1
REMARK minimizedAffinity -9.51368999
REMARK  5 active torsions:
REMARK  status: ('A' for Active; 'I' for Inactive)
REMARK    1  A    between atoms: C2_2  and  C3_3 
REMARK    2  A    between atoms: C2_2  and  C9_10 
REMARK    3  A    between atoms: C3_3  and  C4_4 
REMARK    4  A    between atoms: C5_5  and  C6_6 
REMARK    5  A    between atoms: C6_6  and  O1_9 
ROOT
HETATM    1  C9  UNL     1      -1.797  48.506 -18.459  1.00  0.00    -0.002 C 
HETATM    2  C10 UNL     1      -2.588  47.218 -18.838  1.00  0.00     0.006 C 
HETATM    3  C11 UNL     1      -3.104  47.413 -20.278  1.00  0.00     0.011 C 
HETATM    4  C12 UNL     1      -2.274  48.589 -20.837  1.00  0.00    -0.032 C 
HETATM    5  C13 UNL     1      -0.904  47.976 -21.285  1.00  0.00     0.016 C 
HETATM    6  C14 UNL     1      -2.924  49.359 -22.031  1.00  0.00     0.003 C 
HETATM    7  C15 UNL     1      -3.026  48.489 -23.310  1.00  0.00     0.007 C 
HETATM    8  C16 UNL     1      -3.635  49.272 -24.470  1.00  0.00     0.011 C 
HETATM    9  C17 UNL     1      -2.782  50.512 -24.905  1.00  0.00    -0.030 C 
HETATM   10  C18 UNL     1      -3.782  51.659 -25.201  1.00  0.00     0.016 C 
HETATM   11  C19 UNL     1      -1.733  50.854 -23.785  1.00  0.00     0.003 C 
HETATM   12  C20 UNL     1      -0.876  52.095 -24.119  1.00  0.00     0.013 C 
HETATM   13  C21 UNL     1      -0.626  52.327 -25.603  1.00  0.00     0.079 C 
HETATM   14  C22 UNL     1      -0.789  51.096 -26.460  1.00  0.00     0.131 C 
HETATM   15  O2  UNL     1      -0.008  50.898 -27.400  1.00  0.00    -0.298 OA
HETATM   16  C23 UNL     1      -1.959  50.149 -26.200  1.00  0.00     0.060 C 
HETATM   17  C24 UNL     1      -2.774  50.036 -27.492  1.00  0.00     0.018 C 
HETATM   18  C25 UNL     1      -2.263  50.789 -22.292  1.00  0.00    -0.035 C 
HETATM   19  C26 UNL     1      -3.311  51.912 -22.040  1.00  0.00     0.016 C 
HETATM   20  C27 UNL     1      -1.079  51.096 -21.308  1.00  0.00     0.011 C 
HETATM   21  C28 UNL     1      -1.248  50.696 -19.827  1.00  0.00     0.011 C 
HETATM   22  C29 UNL     1      -2.219  49.526 -19.566  1.00  0.00    -0.032 C 
HETATM   23  C30 UNL     1      -3.606  50.125 -19.179  1.00  0.00     0.016 C 
ENDROOT
BRANCH   1  24
HETATM   24  C2  UNL     1      -1.814  48.824 -16.932  1.00  0.00    -0.010 C 
HETATM   25  C1  UNL     1      -2.775  49.919 -16.447  1.00  0.00     0.010 C 
BRANCH  24  26
HETATM   26  C3  UNL     1      -0.381  49.065 -16.397  1.00  0.00     0.031 C 
BRANCH  26  27
HETATM   27  C4  UNL     1       0.196  50.395 -16.802  1.00  0.00    -0.027 C 
HETATM   28  C5  UNL     1       1.240  50.978 -16.192  1.00  0.00     0.006 C 
BRANCH  28  29
HETATM   29  C6  UNL     1       1.845  52.319 -16.547  1.00  0.00     0.068 C 
HETATM   30  C7  UNL     1       1.518  52.704 -17.994  1.00  0.00     0.050 C 
HETATM   31  C8  UNL     1       3.362  52.294 -16.335  1.00  0.00     0.050 C 
BRANCH  29  32
HETATM   32  O1  UNL     1       1.308  53.328 -15.689  1.00  0.00    -0.387 OA
HETATM   33  H15 UNL     1       0.367  53.431 -15.932  1.00  0.00     0.211 HD
ENDBRANCH  29  32
ENDBRANCH  28  29
ENDBRANCH  26  27
ENDBRANCH  24  26
ENDBRANCH   1  24
TORSDOF 5
ENDMDL
