MODEL 1
REMARK minimizedAffinity -11.1246252
REMARK CNNscore 0.725868702
REMARK CNNaffinity 6.93951845
REMARK  13 active torsions:
REMARK  status: ('A' for Active; 'I' for Inactive)
REMARK    1  A    between atoms: C19_21  and  O3_22 
REMARK    2  A    between atoms: C19_21  and  C20_23 
REMARK    3  A    between atoms: C20_23  and  C21_25 
REMARK    4  A    between atoms: C21_25  and  O5_26 
REMARK    5  A    between atoms: O5_26  and  C22_27 
REMARK    6  A    between atoms: C22_27  and  C23_29 
REMARK    7  A    between atoms: C23_29  and  C24_30 
REMARK    8  A    between atoms: C24_30  and  C25_31 
REMARK       I    between atoms: C25_31  and  N1_33 
REMARK    9  A    between atoms: N1_33  and  C26_34 
REMARK   10  A    between atoms: C26_34  and  C27_35 
REMARK   11  A    between atoms: C26_34  and  C36_45 
REMARK   12  A    between atoms: C27_35  and  C28_36 
REMARK   13  A    between atoms: C36_45  and  O9_47 
ROOT
HETATM    1  C21 UNL     1       0.426  10.759  15.113  1.00  0.00     0.260 C 
ENDROOT
BRANCH   1   2
HETATM    2  C20 UNL     1      -0.884  10.751  14.329  1.00  0.00     0.185 C 
HETATM    3  O4  UNL     1      -1.587  11.765  14.263  1.00  0.00    -0.292 OA
BRANCH   2   4
HETATM    4  C19 UNL     1      -1.290   9.423  13.639  1.00  0.00     0.128 C 
HETATM    5  C14 UNL     1      -2.571   8.734  14.212  1.00  0.00     0.005 C 
HETATM    6  C13 UNL     1      -3.930   9.229  13.688  1.00  0.00     0.091 C 
HETATM    7  C15 UNL     1      -2.599   8.825  15.766  1.00  0.00     0.019 C 
HETATM    8  C16 UNL     1      -2.349   7.281  13.688  1.00  0.00     0.002 C 
HETATM    9  C12 UNL     1      -5.025   8.236  14.077  1.00  0.00     0.133 C 
HETATM   10  C11 UNL     1      -4.803   6.791  13.606  1.00  0.00     0.072 C 
HETATM   11  O2  UNL     1      -6.023   8.608  14.686  1.00  0.00    -0.297 OA
HETATM   12  C2  UNL     1      -5.948   5.765  13.866  1.00  0.00    -0.009 C 
HETATM   13  C10 UNL     1      -3.434   6.303  14.172  1.00  0.00     0.003 C 
HETATM   14  C1  UNL     1      -6.125   5.480  15.376  1.00  0.00     0.021 C 
HETATM   15  C3  UNL     1      -7.292   6.248  13.256  1.00  0.00     0.022 C 
HETATM   16  C7  UNL     1      -5.570   4.460  13.146  1.00  0.00    -0.067 C 
HETATM   17  C4  UNL     1      -8.400   5.197  13.327  1.00  0.00     0.084 C 
HETATM   18  C5  UNL     1      -7.942   3.842  12.843  1.00  0.00     0.149 C 
HETATM   19  O1  UNL     1      -8.738   2.946  12.568  1.00  0.00    -0.293 OA
HETATM   20  C6  UNL     1      -6.490   3.585  12.703  1.00  0.00     0.053 C 
HETATM   21  C8  UNL     1      -4.110   4.217  12.830  1.00  0.00     0.035 C 
HETATM   22  C9  UNL     1      -3.150   4.825  13.846  1.00  0.00     0.010 C 
HETATM   23  C17 UNL     1      -0.896   6.998  14.047  1.00  0.00     0.009 C 
HETATM   24  C18 UNL     1      -0.183   8.351  13.868  1.00  0.00     0.047 C 
BRANCH   4  25
HETATM   25  O3  UNL     1      -1.378   9.576  12.219  1.00  0.00    -0.381 OA
HETATM   26  H25 UNL     1      -2.175  10.080  11.985  1.00  0.00     0.211 HD
ENDBRANCH   4  25
ENDBRANCH   2   4
ENDBRANCH   1   2
BRANCH   1  27
HETATM   27  O5  UNL     1       0.218  10.556  16.512  1.00  0.00    -0.314 OA
BRANCH  27  28
HETATM   28  C22 UNL     1       0.533  11.639  17.273  1.00  0.00     0.259 C 
HETATM   29  O6  UNL     1       0.904  12.712  16.813  1.00  0.00    -0.265 OA
BRANCH  28  30
HETATM   30  C23 UNL     1       0.312  11.378  18.738  1.00  0.00     0.120 C 
BRANCH  30  31
HETATM   31  C24 UNL     1       1.498  11.797  19.596  1.00  0.00     0.112 C 
BRANCH  31  32
HETATM   32  C25 UNL     1       2.299  10.601  20.061  1.00  0.00     0.218 C 
HETATM   33  O7  UNL     1       2.677   9.705  19.317  1.00  0.00    -0.274 OA
HETATM   34  N1  UNL     1       2.560  10.629  21.411  1.00  0.00    -0.346 N 
HETATM   35  H32 UNL     1       1.965  11.201  21.994  1.00  0.00     0.163 HD
BRANCH  34  36
HETATM   36  C26 UNL     1       3.288   9.537  22.068  1.00  0.00     0.186 C 
BRANCH  36  37
HETATM   37  C27 UNL     1       4.287  10.073  23.105  1.00  0.00     0.077 C 
BRANCH  37  38
HETATM   38  C28 UNL     1       4.437  11.564  23.050  1.00  0.00    -0.028 A 
HETATM   39  C29 UNL     1       3.407  12.486  23.023  1.00  0.00     0.096 A 
HETATM   40  N2  UNL     1       3.953  13.740  23.017  1.00  0.00    -0.365 N 
HETATM   41  C30 UNL     1       5.327  13.662  23.028  1.00  0.00     0.042 A 
HETATM   42  H37 UNL     1       3.430  14.604  23.015  1.00  0.00     0.165 HD
HETATM   43  C31 UNL     1       6.287  14.683  23.033  1.00  0.00     0.030 A 
HETATM   44  C35 UNL     1       5.662  12.309  23.036  1.00  0.00    -0.002 A 
HETATM   45  C32 UNL     1       7.632  14.306  23.045  1.00  0.00     0.002 A 
HETATM   46  C33 UNL     1       8.001  12.963  23.049  1.00  0.00     0.001 A 
HETATM   47  C34 UNL     1       7.028  11.956  23.045  1.00  0.00     0.014 A 
ENDBRANCH  37  38
ENDBRANCH  36  37
BRANCH  36  48
HETATM   48  C36 UNL     1       2.330   8.581  22.782  1.00  0.00     0.163 C 
HETATM   49  O8  UNL     1       1.627   7.737  22.246  1.00  0.00    -0.648 OA
BRANCH  48  50
HETATM   50  O9  UNL     1       2.350   8.670  24.131  1.00  0.00    -0.775 OA
HETATM   51  H42 UNL     1       1.668   8.024  24.414  1.00  0.00     0.167 HD
ENDBRANCH  48  50
ENDBRANCH  36  48
ENDBRANCH  34  36
ENDBRANCH  31  32
ENDBRANCH  30  31
ENDBRANCH  28  30
ENDBRANCH  27  28
ENDBRANCH   1  27
TORSDOF 13
ENDMDL
