MODEL 1
REMARK minimizedAffinity -7.16466761
REMARK CNNscore 0.71919775
REMARK CNNaffinity 6.87185144
REMARK  4 active torsions:
REMARK  status: ('A' for Active; 'I' for Inactive)
REMARK    1  A    between atoms: C4_4  and  C5_5 
REMARK    2  A    between atoms: C5_5  and  C6_6 
REMARK    3  A    between atoms: C6_6  and  C7_7 
REMARK    4  A    between atoms: C7_7  and  C9_9 
ROOT
HETATM    1  C9  UNL     1      -2.444  52.116 -10.420  1.00  0.00    -0.002 C 
HETATM    2  C10 UNL     1      -1.834  52.372 -11.832  1.00  0.00     0.007 C 
HETATM    3  C11 UNL     1      -0.642  53.330 -11.659  1.00  0.00     0.015 C 
HETATM    4  C12 UNL     1      -0.776  53.871 -10.223  1.00  0.00    -0.013 C 
HETATM    5  C13 UNL     1      -1.798  55.052 -10.297  1.00  0.00     0.021 C 
HETATM    6  C14 UNL     1       0.473  54.440  -9.554  1.00  0.00    -0.070 C 
HETATM    7  C15 UNL     1       1.431  55.072 -10.252  1.00  0.00    -0.022 C 
HETATM    8  C16 UNL     1       2.619  55.749  -9.643  1.00  0.00     0.034 C 
HETATM    9  C17 UNL     1       2.830  55.461  -8.139  1.00  0.00     0.013 C 
HETATM   10  C18 UNL     1       3.954  56.359  -7.502  1.00  0.00     0.018 C 
HETATM   11  C19 UNL     1       3.997  57.810  -8.019  1.00  0.00     0.023 C 
HETATM   12  C20 UNL     1       5.336  55.733  -7.794  1.00  0.00     0.023 C 
HETATM   13  C21 UNL     1       3.795  56.375  -5.978  1.00  0.00     0.135 C 
HETATM   14  O1  UNL     1       4.240  57.280  -5.271  1.00  0.00    -0.297 OA
HETATM   15  C22 UNL     1       3.138  55.173  -5.362  1.00  0.00     0.080 C 
HETATM   16  C23 UNL     1       1.710  55.010  -5.858  1.00  0.00     0.017 C 
HETATM   17  C24 UNL     1       1.465  55.410  -7.350  1.00  0.00    -0.031 C 
HETATM   18  C25 UNL     1       0.751  56.783  -7.367  1.00  0.00     0.016 C 
HETATM   19  C26 UNL     1       0.566  54.297  -8.033  1.00  0.00     0.024 C 
HETATM   20  C27 UNL     1      -0.819  54.081  -7.376  1.00  0.00     0.010 C 
HETATM   21  C28 UNL     1      -1.716  53.004  -8.038  1.00  0.00     0.011 C 
HETATM   22  C29 UNL     1      -1.295  52.596  -9.466  1.00  0.00    -0.029 C 
HETATM   23  C30 UNL     1      -0.238  51.450  -9.373  1.00  0.00     0.016 C 
ENDROOT
BRANCH   1  24
HETATM   24  C7  UNL     1      -3.010  50.671 -10.289  1.00  0.00    -0.014 C 
HETATM   25  C8  UNL     1      -2.700  49.837 -11.546  1.00  0.00     0.010 C 
BRANCH  24  26
HETATM   26  C6  UNL     1      -4.521  50.587  -9.963  1.00  0.00     0.008 C 
BRANCH  26  27
HETATM   27  C5  UNL     1      -5.147  49.197 -10.101  1.00  0.00     0.028 C 
BRANCH  27  28
HETATM   28  C4  UNL     1      -6.492  49.049 -10.773  1.00  0.00    -0.025 C 
HETATM   29  C2  UNL     1      -7.759  49.236 -10.352  1.00  0.00    -0.091 C 
HETATM   30  C1  UNL     1      -8.911  48.962 -11.288  1.00  0.00     0.042 C 
HETATM   31  C3  UNL     1      -8.173  49.719  -8.993  1.00  0.00     0.042 C 
ENDBRANCH  27  28
ENDBRANCH  26  27
ENDBRANCH  24  26
ENDBRANCH   1  24
TORSDOF 4
ENDMDL
