MODEL 1
REMARK minimizedAffinity -8.29974174
REMARK CNNscore 0.630818963
REMARK CNNaffinity 6.73444796
REMARK  13 active torsions:
REMARK  status: ('A' for Active; 'I' for Inactive)
REMARK    1  A    between atoms: C12_13  and  O2_14 
REMARK    2  A    between atoms: C19_21  and  O3_22 
REMARK    3  A    between atoms: C19_21  and  C20_23 
REMARK    4  A    between atoms: C20_23  and  C21_25 
REMARK    5  A    between atoms: C21_25  and  O5_26 
REMARK    6  A    between atoms: O5_26  and  C22_27 
REMARK    7  A    between atoms: C22_27  and  C23_29 
REMARK    8  A    between atoms: C23_29  and  C24_30 
REMARK    9  A    between atoms: C24_30  and  C25_31 
REMARK       I    between atoms: C25_31  and  N1_33 
REMARK   10  A    between atoms: N1_33  and  C26_34 
REMARK   11  A    between atoms: C26_34  and  C27_35 
REMARK   12  A    between atoms: C30_38  and  C31_39 
REMARK   13  A    between atoms: C31_39  and  O9_41 
ROOT
HETATM    1  C1  UNL     1       3.687  57.724  -8.178  1.00  0.00     0.020 C 
HETATM    2  C2  UNL     1       4.019  56.384  -7.476  1.00  0.00    -0.014 C 
HETATM    3  C3  UNL     1       3.647  56.493  -5.975  1.00  0.00     0.022 C 
HETATM    4  C4  UNL     1       4.469  57.537  -5.223  1.00  0.00     0.084 C 
HETATM    5  C5  UNL     1       5.950  57.400  -5.485  1.00  0.00     0.149 C 
HETATM    6  O1  UNL     1       6.791  57.929  -4.759  1.00  0.00    -0.293 OA
HETATM    7  C6  UNL     1       6.401  56.620  -6.660  1.00  0.00     0.053 C 
HETATM    8  C7  UNL     1       5.532  56.141  -7.569  1.00  0.00    -0.068 C 
HETATM    9  C8  UNL     1       6.036  55.246  -8.680  1.00  0.00     0.035 C 
HETATM   10  C9  UNL     1       5.164  55.260  -9.932  1.00  0.00     0.010 C 
HETATM   11  C10 UNL     1       3.658  55.049  -9.659  1.00  0.00    -0.002 C 
HETATM   12  C11 UNL     1       3.308  55.150  -8.137  1.00  0.00     0.031 C 
HETATM   13  C12 UNL     1       1.786  54.993  -7.880  1.00  0.00     0.124 C 
HETATM   14  C13 UNL     1       1.197  53.736  -8.565  1.00  0.00     0.045 C 
HETATM   15  C14 UNL     1       1.564  53.609 -10.062  1.00  0.00     0.001 C 
HETATM   16  C15 UNL     1       0.813  54.697 -10.881  1.00  0.00     0.019 C 
HETATM   17  C16 UNL     1       3.111  53.711 -10.178  1.00  0.00     0.002 C 
HETATM   18  C17 UNL     1       3.380  53.310 -11.623  1.00  0.00     0.009 C 
HETATM   19  C18 UNL     1       2.334  52.218 -11.921  1.00  0.00     0.047 C 
HETATM   20  C19 UNL     1       1.338  52.205 -10.723  1.00  0.00     0.128 C 
ENDROOT
BRANCH  20  21
HETATM   21  O3  UNL     1       1.808  51.165  -9.857  1.00  0.00    -0.381 OA
HETATM   22  H27 UNL     1       1.215  51.113  -9.086  1.00  0.00     0.211 HD
ENDBRANCH  20  21
BRANCH  20  23
HETATM   23  C20 UNL     1      -0.118  51.958 -11.218  1.00  0.00     0.185 C 
HETATM   24  O4  UNL     1      -1.034  51.667 -10.442  1.00  0.00    -0.292 OA
BRANCH  23  25
HETATM   25  C21 UNL     1      -0.367  51.920 -12.726  1.00  0.00     0.260 C 
BRANCH  25  26
HETATM   26  O5  UNL     1      -0.113  50.679 -13.380  1.00  0.00    -0.314 OA
BRANCH  26  27
HETATM   27  C22 UNL     1      -1.190  50.172 -14.050  1.00  0.00     0.259 C 
HETATM   28  O6  UNL     1      -1.916  49.287 -13.625  1.00  0.00    -0.265 OA
BRANCH  27  29
HETATM   29  C23 UNL     1      -1.358  50.882 -15.371  1.00  0.00     0.120 C 
BRANCH  29  30
HETATM   30  C24 UNL     1      -0.122  50.681 -16.238  1.00  0.00     0.112 C 
BRANCH  30  31
HETATM   31  C25 UNL     1      -0.456  49.925 -17.508  1.00  0.00     0.218 C 
HETATM   32  O7  UNL     1      -0.860  48.768 -17.500  1.00  0.00    -0.274 OA
HETATM   33  N1  UNL     1      -0.214  50.647 -18.651  1.00  0.00    -0.357 N 
HETATM   34  H34 UNL     1       0.026  51.627 -18.576  1.00  0.00     0.162 HD
BRANCH  33  35
HETATM   35  C26 UNL     1      -0.615  50.170 -19.955  1.00  0.00     0.161 C 
BRANCH  35  36
HETATM   36  C27 UNL     1      -0.213  51.163 -21.018  1.00  0.00    -0.040 A 
HETATM   37  C28 UNL     1      -0.654  50.994 -22.339  1.00  0.00     0.010 A 
HETATM   38  C29 UNL     1      -0.300  51.914 -23.330  1.00  0.00     0.019 A 
HETATM   39  C30 UNL     1       0.493  53.021 -23.009  1.00  0.00     0.037 A 
HETATM   40  C32 UNL     1       0.927  53.201 -21.690  1.00  0.00     0.019 A 
HETATM   41  C33 UNL     1       0.575  52.277 -20.701  1.00  0.00     0.010 A 
BRANCH  39  42
HETATM   42  C31 UNL     1       0.852  53.969 -24.092  1.00  0.00     0.176 C 
HETATM   43  O8  UNL     1       0.567  53.854 -25.270  1.00  0.00    -0.646 OA
BRANCH  42  44
HETATM   44  O9  UNL     1       1.558  55.025 -23.649  1.00  0.00    -0.773 OA
HETATM   45  H39 UNL     1       1.718  55.548 -24.462  1.00  0.00     0.167 HD
ENDBRANCH  42  44
ENDBRANCH  39  42
ENDBRANCH  35  36
ENDBRANCH  33  35
ENDBRANCH  30  31
ENDBRANCH  29  30
ENDBRANCH  27  29
ENDBRANCH  26  27
ENDBRANCH  25  26
ENDBRANCH  23  25
ENDBRANCH  20  23
BRANCH  13  46
HETATM   46  O2  UNL     1       1.077  56.151  -8.283  1.00  0.00    -0.395 OA
HETATM   47  H16 UNL     1       0.153  56.059  -7.993  1.00  0.00     0.210 HD
ENDBRANCH  13  46
TORSDOF 13
ENDMDL
