MODEL 1
REMARK minimizedAffinity -8.35013294
REMARK CNNscore 0.634304941
REMARK CNNaffinity 6.51830101
REMARK  12 active torsions:
REMARK  status: ('A' for Active; 'I' for Inactive)
REMARK    1  A    between atoms: C19_21  and  O3_22 
REMARK    2  A    between atoms: C19_21  and  C20_23 
REMARK    3  A    between atoms: C20_23  and  C21_25 
REMARK    4  A    between atoms: C21_25  and  O5_26 
REMARK    5  A    between atoms: O5_26  and  C22_27 
REMARK    6  A    between atoms: C22_27  and  C23_29 
REMARK    7  A    between atoms: C23_29  and  C24_30 
REMARK    8  A    between atoms: C24_30  and  C25_31 
REMARK       I    between atoms: C25_31  and  N1_33 
REMARK    9  A    between atoms: N1_33  and  C26_34 
REMARK   10  A    between atoms: C26_34  and  C27_35 
REMARK   11  A    between atoms: C30_38  and  C31_39 
REMARK   12  A    between atoms: C31_39  and  O9_41 
ROOT
HETATM    1  C1  UNL     1      -0.107  52.395 -24.088  1.00  0.00     0.021 C 
HETATM    2  C2  UNL     1      -1.287  51.398 -24.084  1.00  0.00    -0.009 C 
HETATM    3  C3  UNL     1      -1.053  50.363 -25.229  1.00  0.00     0.022 C 
HETATM    4  C4  UNL     1      -1.121  50.961 -26.633  1.00  0.00     0.084 C 
HETATM    5  C5  UNL     1      -2.341  51.828 -26.828  1.00  0.00     0.149 C 
HETATM    6  O1  UNL     1      -2.748  52.132 -27.948  1.00  0.00    -0.293 OA
HETATM    7  C6  UNL     1      -3.054  52.339 -25.636  1.00  0.00     0.053 C 
HETATM    8  C7  UNL     1      -2.584  52.141 -24.392  1.00  0.00    -0.067 C 
HETATM    9  C8  UNL     1      -3.378  52.568 -23.192  1.00  0.00     0.035 C 
HETATM   10  C9  UNL     1      -3.846  51.336 -22.414  1.00  0.00     0.010 C 
HETATM   11  C10 UNL     1      -2.855  50.144 -22.437  1.00  0.00     0.003 C 
HETATM   12  C11 UNL     1      -1.400  50.591 -22.735  1.00  0.00     0.072 C 
HETATM   13  C12 UNL     1      -0.872  51.207 -21.438  1.00  0.00     0.133 C 
HETATM   14  O2  UNL     1      -0.557  52.384 -21.298  1.00  0.00    -0.297 OA
HETATM   15  C13 UNL     1      -0.787  50.240 -20.275  1.00  0.00     0.091 C 
HETATM   16  C14 UNL     1      -2.198  49.725 -19.902  1.00  0.00     0.005 C 
HETATM   17  C15 UNL     1      -2.912  50.847 -19.124  1.00  0.00     0.019 C 
HETATM   18  C16 UNL     1      -2.981  49.263 -21.166  1.00  0.00     0.002 C 
HETATM   19  C17 UNL     1      -2.475  47.826 -21.422  1.00  0.00     0.009 C 
HETATM   20  C18 UNL     1      -1.845  47.326 -20.123  1.00  0.00     0.047 C 
HETATM   21  C19 UNL     1      -2.116  48.407 -19.063  1.00  0.00     0.128 C 
ENDROOT
BRANCH  21  22
HETATM   22  O3  UNL     1      -1.018  48.462 -18.162  1.00  0.00    -0.381 OA
HETATM   23  H25 UNL     1      -0.759  47.550 -17.930  1.00  0.00     0.211 HD
ENDBRANCH  21  22
BRANCH  21  24
HETATM   24  C20 UNL     1      -3.433  48.060 -18.309  1.00  0.00     0.185 C 
HETATM   25  O4  UNL     1      -4.316  47.381 -18.842  1.00  0.00    -0.292 OA
BRANCH  24  26
HETATM   26  C21 UNL     1      -3.587  48.617 -16.895  1.00  0.00     0.260 C 
BRANCH  26  27
HETATM   27  O5  UNL     1      -3.022  47.714 -15.944  1.00  0.00    -0.314 OA
BRANCH  27  28
HETATM   28  C22 UNL     1      -2.170  48.304 -15.065  1.00  0.00     0.259 C 
HETATM   29  O6  UNL     1      -1.190  47.764 -14.567  1.00  0.00    -0.265 OA
BRANCH  28  30
HETATM   30  C23 UNL     1      -2.586  49.732 -14.817  1.00  0.00     0.120 C 
BRANCH  30  31
HETATM   31  C24 UNL     1      -2.642  50.035 -13.325  1.00  0.00     0.112 C 
BRANCH  31  32
HETATM   32  C25 UNL     1      -3.129  51.446 -13.054  1.00  0.00     0.218 C 
HETATM   33  O7  UNL     1      -3.320  52.273 -13.939  1.00  0.00    -0.274 OA
HETATM   34  N1  UNL     1      -3.324  51.701 -11.717  1.00  0.00    -0.357 N 
HETATM   35  H32 UNL     1      -3.017  51.020 -11.035  1.00  0.00     0.162 HD
BRANCH  34  36
HETATM   36  C26 UNL     1      -3.721  53.004 -11.235  1.00  0.00     0.161 C 
BRANCH  36  37
HETATM   37  C27 UNL     1      -2.697  53.563 -10.281  1.00  0.00    -0.040 A 
HETATM   38  C28 UNL     1      -2.291  52.835  -9.154  1.00  0.00     0.010 A 
HETATM   39  C29 UNL     1      -1.334  53.358  -8.278  1.00  0.00     0.019 A 
HETATM   40  C30 UNL     1      -0.768  54.615  -8.524  1.00  0.00     0.037 A 
HETATM   41  C32 UNL     1      -1.160  55.341  -9.655  1.00  0.00     0.019 A 
HETATM   42  C33 UNL     1      -2.116  54.816 -10.527  1.00  0.00     0.010 A 
BRANCH  40  43
HETATM   43  C31 UNL     1       0.243  55.213  -7.620  1.00  0.00     0.176 C 
HETATM   44  O8  UNL     1       1.431  54.950  -7.603  1.00  0.00    -0.646 OA
BRANCH  43  45
HETATM   45  O9  UNL     1      -0.280  56.124  -6.780  1.00  0.00    -0.773 OA
HETATM   46  H37 UNL     1       0.494  56.431  -6.263  1.00  0.00     0.167 HD
ENDBRANCH  43  45
ENDBRANCH  40  43
ENDBRANCH  36  37
ENDBRANCH  34  36
ENDBRANCH  31  32
ENDBRANCH  30  31
ENDBRANCH  28  30
ENDBRANCH  27  28
ENDBRANCH  26  27
ENDBRANCH  24  26
ENDBRANCH  21  24
TORSDOF 12
ENDMDL
