MODEL 1
REMARK minimizedAffinity -8.02416992
REMARK CNNscore 0.799398065
REMARK CNNaffinity 6.32733965
REMARK  10 active torsions:
REMARK  status: ('A' for Active; 'I' for Inactive)
REMARK    1  A    between atoms: C2_2  and  C3_3 
REMARK    2  A    between atoms: C2_2  and  C9_11 
REMARK    3  A    between atoms: C3_3  and  C4_4 
REMARK    4  A    between atoms: C4_4  and  C5_5 
REMARK    5  A    between atoms: C5_5  and  O1_6 
REMARK    6  A    between atoms: C5_5  and  C6_7 
REMARK    7  A    between atoms: C6_7  and  O2_10 
REMARK    8  A    between atoms: C12_14  and  C13_15 
REMARK    9  A    between atoms: C13_15  and  O4_17 
REMARK   10  A    between atoms: C21_25  and  O5_26 
ROOT
HETATM    1  C9  UNL     1       2.291  54.431  -9.945  1.00  0.00    -0.001 C 
HETATM    2  C10 UNL     1       3.384  53.564 -10.621  1.00  0.00     0.007 C 
HETATM    3  C11 UNL     1       4.745  54.045 -10.052  1.00  0.00     0.022 C 
HETATM    4  C12 UNL     1       4.366  54.877  -8.807  1.00  0.00     0.057 C 
HETATM    5  C14 UNL     1       5.405  55.901  -8.265  1.00  0.00     0.010 C 
HETATM    6  C15 UNL     1       6.763  55.292  -7.871  1.00  0.00     0.010 C 
HETATM    7  C16 UNL     1       6.981  55.039  -6.379  1.00  0.00     0.036 C 
HETATM    8  C17 UNL     1       7.404  56.256  -5.566  1.00  0.00    -0.067 C 
HETATM    9  C18 UNL     1       6.873  57.492  -5.746  1.00  0.00    -0.076 C 
HETATM   10  C19 UNL     1       7.369  58.707  -4.981  1.00  0.00     0.037 C 
HETATM   11  C20 UNL     1       8.696  58.522  -4.261  1.00  0.00     0.037 C 
HETATM   12  C21 UNL     1       8.724  57.189  -3.531  1.00  0.00     0.130 C 
HETATM   13  C22 UNL     1       8.519  55.989  -4.513  1.00  0.00     0.002 C 
HETATM   14  C23 UNL     1       8.205  54.731  -3.669  1.00  0.00     0.022 C 
HETATM   15  C24 UNL     1       9.853  55.754  -5.263  1.00  0.00     0.022 C 
HETATM   16  C25 UNL     1       5.712  57.870  -6.656  1.00  0.00     0.039 C 
HETATM   17  C26 UNL     1       4.756  56.769  -7.149  1.00  0.00    -0.005 C 
HETATM   18  C27 UNL     1       3.421  57.418  -7.604  1.00  0.00     0.006 C 
HETATM   19  C28 UNL     1       2.422  56.454  -8.267  1.00  0.00     0.011 C 
HETATM   20  C29 UNL     1       3.095  55.637  -9.379  1.00  0.00    -0.022 C 
HETATM   21  C30 UNL     1       3.450  56.641 -10.521  1.00  0.00     0.017 C 
ENDROOT
BRANCH   1  22
HETATM   22  C2  UNL     1       0.927  54.602 -10.670  1.00  0.00    -0.014 C 
HETATM   23  C1  UNL     1      -0.129  55.114  -9.672  1.00  0.00     0.010 C 
BRANCH  22  24
HETATM   24  C3  UNL     1       0.321  53.479 -11.538  1.00  0.00     0.007 C 
BRANCH  24  25
HETATM   25  C4  UNL     1      -0.899  52.747 -10.988  1.00  0.00     0.035 C 
BRANCH  25  26
HETATM   26  C5  UNL     1      -2.055  52.559 -11.983  1.00  0.00     0.151 C 
BRANCH  26  27
HETATM   27  O1  UNL     1      -2.055  51.162 -12.344  1.00  0.00    -0.393 OA
HETATM   28  H10 UNL     1      -2.883  50.774 -11.996  1.00  0.00     0.210 HD
ENDBRANCH  26  27
BRANCH  26  29
HETATM   29  C6  UNL     1      -3.495  52.964 -11.539  1.00  0.00     0.076 C 
HETATM   30  C7  UNL     1      -3.499  54.071 -10.484  1.00  0.00     0.048 C 
HETATM   31  C8  UNL     1      -4.350  51.780 -11.085  1.00  0.00     0.048 C 
BRANCH  29  32
HETATM   32  O2  UNL     1      -4.164  53.508 -12.699  1.00  0.00    -0.388 OA
HETATM   33  H17 UNL     1      -3.517  54.067 -13.172  1.00  0.00     0.210 HD
ENDBRANCH  29  32
ENDBRANCH  26  29
ENDBRANCH  25  26
ENDBRANCH  24  25
ENDBRANCH  22  24
ENDBRANCH   1  22
BRANCH   4  34
HETATM   34  C13 UNL     1       4.047  53.876  -7.657  1.00  0.00     0.149 C 
HETATM   35  O3  UNL     1       4.542  52.780  -7.459  1.00  0.00    -0.649 OA
BRANCH  34  36
HETATM   36  O4  UNL     1       3.069  54.291  -6.826  1.00  0.00    -0.776 OA
HETATM   37  H23 UNL     1       2.982  53.552  -6.187  1.00  0.00     0.167 HD
ENDBRANCH  34  36
ENDBRANCH   4  34
BRANCH  12  38
HETATM   38  O5  UNL     1       7.732  57.196  -2.500  1.00  0.00    -0.394 OA
HETATM   39  H34 UNL     1       7.921  57.947  -1.914  1.00  0.00     0.210 HD
ENDBRANCH  12  38
TORSDOF 10
ENDMDL
