MODEL 1
REMARK minimizedAffinity -8.21403408
REMARK  8 active torsions:
REMARK  status: ('A' for Active; 'I' for Inactive)
REMARK    1  A    between atoms: C4_4  and  C5_5 
REMARK    2  A    between atoms: C5_5  and  C6_6 
REMARK    3  A    between atoms: C6_6  and  C7_7 
REMARK    4  A    between atoms: C7_7  and  C9_9 
REMARK    5  A    between atoms: C21_21  and  C22_22 
REMARK    6  A    between atoms: C22_22  and  C23_23 
REMARK    7  A    between atoms: C23_23  and  C24_24 
REMARK    8  A    between atoms: C24_24  and  O1_25 
ROOT
HETATM    1  C9  UNL     1      -3.090  49.681 -22.630  1.00  0.00    -0.002 C 
HETATM    2  C10 UNL     1      -2.385  48.371 -22.151  1.00  0.00     0.006 C 
HETATM    3  C11 UNL     1      -3.461  47.261 -22.128  1.00  0.00     0.011 C 
HETATM    4  C12 UNL     1      -4.797  48.020 -22.237  1.00  0.00    -0.032 C 
HETATM    5  C13 UNL     1      -5.085  48.552 -20.791  1.00  0.00     0.016 C 
HETATM    6  C14 UNL     1      -5.995  47.202 -22.794  1.00  0.00     0.003 C 
HETATM    7  C15 UNL     1      -6.343  45.921 -22.002  1.00  0.00     0.010 C 
HETATM    8  C16 UNL     1      -7.657  45.276 -22.456  1.00  0.00     0.035 C 
HETATM    9  C17 UNL     1      -7.979  45.627 -23.891  1.00  0.00    -0.073 C 
HETATM   10  C18 UNL     1      -8.022  44.696 -24.881  1.00  0.00    -0.085 C 
HETATM   11  C19 UNL     1      -8.308  44.991 -26.333  1.00  0.00     0.043 C 
HETATM   12  C20 UNL     1      -7.777  43.228 -24.617  1.00  0.00     0.043 C 
HETATM   13  C21 UNL     1      -8.173  47.145 -24.126  1.00  0.00     0.023 C 
HETATM   14  C25 UNL     1      -7.280  48.057 -23.147  1.00  0.00    -0.032 C 
HETATM   15  C26 UNL     1      -8.073  48.473 -21.879  1.00  0.00     0.016 C 
HETATM   16  C27 UNL     1      -6.880  49.387 -23.887  1.00  0.00     0.011 C 
HETATM   17  C28 UNL     1      -5.600  50.108 -23.403  1.00  0.00     0.011 C 
HETATM   18  C29 UNL     1      -4.405  49.147 -23.279  1.00  0.00    -0.032 C 
HETATM   19  C30 UNL     1      -4.086  48.623 -24.713  1.00  0.00     0.016 C 
ENDROOT
BRANCH   1  20
HETATM   20  C7  UNL     1      -2.131  50.694 -23.331  1.00  0.00    -0.014 C 
HETATM   21  C8  UNL     1      -0.985  51.254 -22.482  1.00  0.00     0.010 C 
BRANCH  20  22
HETATM   22  C6  UNL     1      -1.622  50.134 -24.683  1.00  0.00     0.008 C 
BRANCH  22  23
HETATM   23  C5  UNL     1      -1.123  51.190 -25.686  1.00  0.00     0.028 C 
BRANCH  23  24
HETATM   24  C4  UNL     1       0.374  51.242 -25.819  1.00  0.00    -0.025 C 
HETATM   25  C2  UNL     1       1.099  51.504 -26.924  1.00  0.00    -0.091 C 
HETATM   26  C1  UNL     1       2.603  51.554 -26.859  1.00  0.00     0.042 C 
HETATM   27  C3  UNL     1       0.528  51.778 -28.287  1.00  0.00     0.042 C 
ENDBRANCH  23  24
ENDBRANCH  22  23
ENDBRANCH  20  22
ENDBRANCH   1  20
BRANCH  13  28
HETATM   28  C22 UNL     1      -9.698  47.427 -24.187  1.00  0.00     0.012 C 
BRANCH  28  29
HETATM   29  C23 UNL     1     -10.240  47.722 -25.590  1.00  0.00     0.027 C 
BRANCH  29  30
HETATM   30  C24 UNL     1      -9.377  48.725 -26.354  1.00  0.00     0.164 C 
BRANCH  30  31
HETATM   31  O1  UNL     1      -9.710  50.060 -26.000  1.00  0.00    -0.401 OA
HETATM   32  H42 UNL     1      -9.341  50.231 -25.117  1.00  0.00     0.209 HD
ENDBRANCH  30  31
ENDBRANCH  29  30
ENDBRANCH  28  29
ENDBRANCH  13  28
TORSDOF 8
ENDMDL
