MODEL 1
REMARK minimizedAffinity -9.56227303
REMARK CNNscore 0.486068606
REMARK CNNaffinity 7.10467386
REMARK  11 active torsions:
REMARK  status: ('A' for Active; 'I' for Inactive)
REMARK    1  A    between atoms: C2_2  and  C3_4 
REMARK    2  A    between atoms: N1_14  and  O2_16 
REMARK    3  A    between atoms: O2_16  and  C13_17 
REMARK    4  A    between atoms: C13_17  and  C14_18 
REMARK       I    between atoms: C14_18  and  N2_20 
REMARK    5  A    between atoms: N2_20  and  C15_21 
REMARK    6  A    between atoms: C15_21  and  C16_22 
REMARK       I    between atoms: C16_22  and  N3_24 
REMARK    7  A    between atoms: N3_24  and  C17_25 
REMARK    8  A    between atoms: C17_25  and  C18_26 
REMARK    9  A    between atoms: C17_25  and  C27_36 
REMARK   10  A    between atoms: C18_26  and  C19_27 
REMARK   11  A    between atoms: C27_36  and  O6_38 
ROOT
HETATM    1  C13 UNL     1       2.352  52.523 -16.681  1.00  0.00     0.303 C 
ENDROOT
BRANCH   1   2
HETATM    2  O2  UNL     1       0.985  52.831 -16.931  1.00  0.00    -0.271 OA
BRANCH   2   3
HETATM    3  N1  UNL     1       0.868  53.186 -18.283  1.00  0.00    -0.271 N 
HETATM    4  C12 UNL     1       0.052  52.430 -18.953  1.00  0.00     0.032 C 
HETATM    5  C11 UNL     1      -0.784  51.331 -18.391  1.00  0.00     0.030 C 
HETATM    6  C28 UNL     1       0.049  52.656 -20.454  1.00  0.00     0.060 C 
HETATM    7  C10 UNL     1      -1.326  50.382 -19.181  1.00  0.00    -0.069 C 
HETATM    8  C9  UNL     1      -1.984  49.177 -18.549  1.00  0.00     0.035 C 
HETATM    9  C30 UNL     1      -1.185  50.404 -20.707  1.00  0.00    -0.016 C 
HETATM   10  C8  UNL     1      -3.170  48.605 -19.323  1.00  0.00     0.010 C 
HETATM   11  C7  UNL     1      -2.800  48.364 -20.795  1.00  0.00    -0.004 C 
HETATM   12  C6  UNL     1      -3.850  47.625 -21.670  1.00  0.00    -0.001 C 
HETATM   13  C32 UNL     1      -2.396  49.710 -21.446  1.00  0.00     0.002 C 
HETATM   14  C5  UNL     1      -4.704  46.569 -20.970  1.00  0.00     0.006 C 
HETATM   15  C35 UNL     1      -4.857  48.512 -22.475  1.00  0.00    -0.030 C 
HETATM   16  C4  UNL     1      -5.834  46.334 -21.965  1.00  0.00     0.013 C 
HETATM   17  C3  UNL     1      -6.228  47.762 -22.347  1.00  0.00     0.063 C 
HETATM   18  C34 UNL     1      -4.967  49.910 -21.860  1.00  0.00     0.011 C 
HETATM   19  C36 UNL     1      -4.389  48.603 -23.951  1.00  0.00     0.016 C 
HETATM   20  C33 UNL     1      -3.633  50.625 -21.637  1.00  0.00     0.007 C 
HETATM   21  C29 UNL     1      -1.040  51.881 -21.178  1.00  0.00     0.020 C 
HETATM   22  C31 UNL     1       0.108  49.630 -21.061  1.00  0.00     0.020 C 
ATOM     23  H1  UNL     1       1.377  53.965 -18.701  1.00  0.00     0.194 HD
BRANCH  17  24
HETATM   24  C2  UNL     1      -7.175  47.892 -23.547  1.00  0.00     0.128 C 
HETATM   25  C1  UNL     1      -7.935  49.186 -23.724  1.00  0.00     0.091 C 
HETATM   26  O1  UNL     1      -7.234  47.012 -24.417  1.00  0.00    -0.298 OA
ENDBRANCH  17  24
ENDBRANCH   2   3
ENDBRANCH   1   2
BRANCH   1  27
HETATM   27  C14 UNL     1       2.682  52.125 -15.243  1.00  0.00     0.244 C 
HETATM   28  O3  UNL     1       3.768  51.634 -14.940  1.00  0.00    -0.271 OA
HETATM   29  N2  UNL     1       1.645  52.245 -14.346  1.00  0.00    -0.350 N 
HETATM   30  H18 UNL     1       0.749  52.570 -14.687  1.00  0.00     0.163 HD
BRANCH  29  31
HETATM   31  C15 UNL     1       1.674  51.508 -13.088  1.00  0.00     0.225 C 
BRANCH  31  32
HETATM   32  C16 UNL     1       1.777  52.331 -11.806  1.00  0.00     0.236 C 
HETATM   33  O4  UNL     1       2.375  51.904 -10.819  1.00  0.00    -0.272 OA
HETATM   34  N3  UNL     1       1.250  53.602 -11.855  1.00  0.00    -0.345 N 
HETATM   35  H21 UNL     1       0.562  53.786 -12.573  1.00  0.00     0.163 HD
BRANCH  34  36
HETATM   36  C17 UNL     1       1.146  54.393 -10.620  1.00  0.00     0.186 C 
BRANCH  36  37
HETATM   37  C18 UNL     1       2.080  55.609 -10.584  1.00  0.00     0.077 C 
BRANCH  37  38
HETATM   38  C19 UNL     1       2.836  55.904  -9.317  1.00  0.00    -0.028 A 
HETATM   39  C20 UNL     1       2.379  56.409  -8.109  1.00  0.00     0.096 A 
HETATM   40  N4  UNL     1       3.441  56.475  -7.244  1.00  0.00    -0.365 N 
HETATM   41  C21 UNL     1       4.581  55.998  -7.842  1.00  0.00     0.042 A 
HETATM   42  H26 UNL     1       3.397  56.807  -6.292  1.00  0.00     0.165 HD
HETATM   43  C22 UNL     1       5.875  55.852  -7.326  1.00  0.00     0.030 A 
HETATM   44  C26 UNL     1       4.242  55.648  -9.149  1.00  0.00    -0.002 A 
HETATM   45  C23 UNL     1       6.855  55.331  -8.177  1.00  0.00     0.002 A 
HETATM   46  C24 UNL     1       6.550  54.982  -9.494  1.00  0.00     0.001 A 
HETATM   47  C25 UNL     1       5.253  55.140  -9.991  1.00  0.00     0.014 A 
ENDBRANCH  37  38
ENDBRANCH  36  37
BRANCH  36  48
HETATM   48  C27 UNL     1      -0.311  54.766 -10.334  1.00  0.00     0.163 C 
HETATM   49  O5  UNL     1      -0.714  55.512  -9.453  1.00  0.00    -0.648 OA
BRANCH  48  50
HETATM   50  O6  UNL     1      -1.186  54.188 -11.191  1.00  0.00    -0.775 OA
HETATM   51  H31 UNL     1      -2.062  54.541 -10.908  1.00  0.00     0.167 HD
ENDBRANCH  48  50
ENDBRANCH  36  48
ENDBRANCH  34  36
ENDBRANCH  31  32
ENDBRANCH  29  31
ENDBRANCH   1  27
TORSDOF 11
ENDMDL
