MODEL 1
REMARK minimizedAffinity -9.1079855
REMARK  4 active torsions:
REMARK  status: ('A' for Active; 'I' for Inactive)
REMARK    1  A    between atoms: C2_2  and  C4_4 
REMARK    2  A    between atoms: C13_13  and  C15_15 
REMARK    3  A    between atoms: C15_15  and  O1_16 
REMARK    4  A    between atoms: C18_19  and  O2_20 
ROOT
HETATM    1  C4  UNL     1      -0.177  51.386 -20.463  1.00  0.00     0.021 C 
HETATM    2  C5  UNL     1       0.800  52.527 -20.818  1.00  0.00     0.008 C 
HETATM    3  C6  UNL     1       0.786  52.978 -22.295  1.00  0.00     0.009 C 
HETATM    4  C7  UNL     1      -0.033  52.068 -23.236  1.00  0.00     0.034 C 
HETATM    5  C8  UNL     1      -0.031  52.489 -24.765  1.00  0.00    -0.033 C 
HETATM    6  C9  UNL     1      -0.037  54.028 -24.927  1.00  0.00     0.016 C 
HETATM    7  C10 UNL     1       1.281  51.953 -25.403  1.00  0.00     0.010 C 
HETATM    8  C11 UNL     1       1.280  51.994 -26.926  1.00  0.00     0.002 C 
HETATM    9  C12 UNL     1       0.130  51.172 -27.491  1.00  0.00     0.012 C 
HETATM   10  C13 UNL     1      -1.269  51.633 -27.008  1.00  0.00    -0.018 C 
HETATM   11  C14 UNL     1      -1.669  52.916 -27.769  1.00  0.00     0.018 C 
HETATM   12  C16 UNL     1      -1.268  51.786 -25.436  1.00  0.00     0.007 C 
HETATM   13  C17 UNL     1      -2.604  52.310 -24.854  1.00  0.00     0.041 C 
HETATM   14  C18 UNL     1      -2.556  52.641 -23.356  1.00  0.00     0.156 C 
HETATM   15  C19 UNL     1      -1.431  51.935 -22.663  1.00  0.00     0.118 A 
HETATM   16  O3  UNL     1      -1.777  50.623 -22.181  1.00  0.00    -0.366 OA
HETATM   17  C20 UNL     1      -1.485  51.614 -21.186  1.00  0.00     0.165 A 
ENDROOT
BRANCH  10  18
HETATM   18  C15 UNL     1      -2.298  50.525 -27.398  1.00  0.00     0.173 C 
BRANCH  18  19
HETATM   19  O1  UNL     1      -2.972  50.815 -28.618  1.00  0.00    -0.400 OA
HETATM   20  H28 UNL     1      -3.631  51.507 -28.436  1.00  0.00     0.209 HD
ENDBRANCH  18  19
ENDBRANCH  10  18
BRANCH  14  21
HETATM   21  O2  UNL     1      -3.816  52.297 -22.774  1.00  0.00    -0.392 OA
HETATM   22  H33 UNL     1      -3.783  51.331 -22.626  1.00  0.00     0.210 HD
ENDBRANCH  14  21
BRANCH   1  23
HETATM   23  C2  UNL     1      -0.392  51.223 -18.934  1.00  0.00    -0.016 C 
HETATM   24  C1  UNL     1      -1.841  51.496 -18.515  1.00  0.00     0.010 C 
HETATM   25  C3  UNL     1       0.535  52.156 -18.143  1.00  0.00     0.010 C 
ENDBRANCH   1  23
TORSDOF 4
ENDMDL
