MODEL 1
REMARK minimizedAffinity -10.4356861
REMARK CNNscore 0.378212959
REMARK CNNaffinity 6.03607035
REMARK  12 active torsions:
REMARK  status: ('A' for Active; 'I' for Inactive)
REMARK    1  A    between atoms: C3_3  and  O1_4 
REMARK    2  A    between atoms: N1_14  and  O2_16 
REMARK    3  A    between atoms: O2_16  and  C13_17 
REMARK    4  A    between atoms: C13_17  and  C14_18 
REMARK       I    between atoms: C14_18  and  N2_20 
REMARK    5  A    between atoms: N2_20  and  C15_21 
REMARK    6  A    between atoms: C15_21  and  C16_22 
REMARK    7  A    between atoms: C15_21  and  C26_36 
REMARK       I    between atoms: C16_22  and  N3_24 
REMARK    8  A    between atoms: N3_24  and  C17_25 
REMARK    9  A    between atoms: C17_25  and  C18_26 
REMARK   10  A    between atoms: C17_25  and  C25_33 
REMARK   11  A    between atoms: C18_26  and  C19_27 
REMARK   12  A    between atoms: C25_33  and  O6_35 
ROOT
HETATM    1  C1  UNL     1       1.969  51.800 -26.419  1.00  0.00     0.015 C 
HETATM    2  C2  UNL     1       0.819  52.110 -26.269  1.00  0.00    -0.078 C 
HETATM    3  C3  UNL     1      -0.597  52.504 -26.088  1.00  0.00     0.128 C 
HETATM    4  C4  UNL     1      -1.416  52.103 -27.324  1.00  0.00     0.052 C 
HETATM    5  C5  UNL     1      -1.994  50.714 -27.020  1.00  0.00     0.010 C 
HETATM    6  C6  UNL     1      -1.582  50.369 -25.574  1.00  0.00     0.002 C 
HETATM    7  C7  UNL     1      -2.508  49.425 -24.762  1.00  0.00    -0.004 C 
HETATM    8  C8  UNL     1      -3.099  48.285 -25.622  1.00  0.00     0.010 C 
HETATM    9  C9  UNL     1      -4.575  48.467 -25.954  1.00  0.00     0.035 C 
HETATM   10  C10 UNL     1      -5.440  48.677 -24.738  1.00  0.00    -0.069 C 
HETATM   11  C11 UNL     1      -6.756  48.396 -24.811  1.00  0.00     0.030 C 
HETATM   12  C12 UNL     1      -7.682  48.627 -23.659  1.00  0.00     0.032 C 
HETATM   13  N1  UNL     1      -8.954  48.366 -23.641  1.00  0.00    -0.271 N 
ATOM     14  H1  UNL     1      -9.560  48.537 -22.838  1.00  0.00     0.194 HD
HETATM   15  C29 UNL     1      -7.095  49.204 -22.384  1.00  0.00     0.060 C 
HETATM   16  C30 UNL     1      -5.852  50.033 -22.679  1.00  0.00     0.020 C 
HETATM   17  C31 UNL     1      -4.781  49.245 -23.486  1.00  0.00    -0.016 C 
HETATM   18  C32 UNL     1      -4.289  48.074 -22.587  1.00  0.00     0.020 C 
HETATM   19  C33 UNL     1      -3.548  50.154 -23.851  1.00  0.00     0.002 C 
HETATM   20  C34 UNL     1      -3.890  51.531 -24.438  1.00  0.00     0.007 C 
HETATM   21  C35 UNL     1      -2.667  52.449 -24.556  1.00  0.00     0.014 C 
HETATM   22  C36 UNL     1      -1.326  51.749 -24.928  1.00  0.00     0.003 C 
HETATM   23  C37 UNL     1      -0.456  51.646 -23.659  1.00  0.00     0.020 C 
ENDROOT
BRANCH   3  24
HETATM   24  O1  UNL     1      -0.639  53.914 -25.915  1.00  0.00    -0.377 OA
HETATM   25  H2  UNL     1      -0.025  54.130 -25.195  1.00  0.00     0.211 HD
ENDBRANCH   3  24
BRANCH  13  26
HETATM   26  O2  UNL     1      -9.398  47.822 -24.855  1.00  0.00    -0.271 OA
BRANCH  26  27
HETATM   27  C13 UNL     1     -10.519  46.985 -24.596  1.00  0.00     0.303 C 
BRANCH  27  28
HETATM   28  C14 UNL     1     -11.619  47.269 -25.609  1.00  0.00     0.244 C 
HETATM   29  O3  UNL     1     -11.648  48.290 -26.292  1.00  0.00    -0.271 OA
HETATM   30  N2  UNL     1     -12.615  46.313 -25.649  1.00  0.00    -0.346 N 
HETATM   31  H16 UNL     1     -12.674  45.714 -24.832  1.00  0.00     0.163 HD
BRANCH  30  32
HETATM   32  C15 UNL     1     -13.866  46.572 -26.354  1.00  0.00     0.180 C 
BRANCH  32  33
HETATM   33  C16 UNL     1     -14.936  46.729 -25.250  1.00  0.00     0.241 C 
HETATM   34  O4  UNL     1     -14.780  47.473 -24.283  1.00  0.00    -0.271 OA
HETATM   35  N3  UNL     1     -16.069  45.967 -25.435  1.00  0.00    -0.345 N 
HETATM   36  H18 UNL     1     -16.008  45.172 -26.061  1.00  0.00     0.163 HD
BRANCH  35  37
HETATM   37  C17 UNL     1     -17.149  45.956 -24.439  1.00  0.00     0.186 C 
BRANCH  37  38
HETATM   38  C18 UNL     1     -16.744  46.790 -23.216  1.00  0.00     0.074 C 
BRANCH  38  39
HETATM   39  C19 UNL     1     -17.280  46.255 -21.911  1.00  0.00    -0.056 A 
HETATM   40  C20 UNL     1     -18.605  45.805 -21.821  1.00  0.00     0.007 A 
HETATM   41  C21 UNL     1     -19.108  45.322 -20.613  1.00  0.00     0.001 A 
HETATM   42  C22 UNL     1     -18.294  45.287 -19.483  1.00  0.00     0.000 A 
HETATM   43  C23 UNL     1     -16.976  45.732 -19.561  1.00  0.00     0.001 A 
HETATM   44  C24 UNL     1     -16.468  46.213 -20.769  1.00  0.00     0.007 A 
ENDBRANCH  38  39
ENDBRANCH  37  38
BRANCH  37  45
HETATM   45  C25 UNL     1     -18.392  46.561 -25.089  1.00  0.00     0.163 C 
HETATM   46  O5  UNL     1     -18.953  47.590 -24.739  1.00  0.00    -0.648 OA
BRANCH  45  47
HETATM   47  O6  UNL     1     -18.865  45.841 -26.124  1.00  0.00    -0.775 OA
HETATM   48  H27 UNL     1     -19.636  46.345 -26.456  1.00  0.00     0.167 HD
ENDBRANCH  45  47
ENDBRANCH  37  45
ENDBRANCH  35  37
ENDBRANCH  32  33
BRANCH  32  49
HETATM   49  C26 UNL     1     -14.208  45.413 -27.315  1.00  0.00     0.009 C 
HETATM   50  C27 UNL     1     -15.561  44.774 -26.991  1.00  0.00     0.012 C 
HETATM   51  C28 UNL     1     -14.221  45.893 -28.772  1.00  0.00     0.012 C 
ENDBRANCH  32  49
ENDBRANCH  30  32
ENDBRANCH  27  28
ENDBRANCH  26  27
ENDBRANCH  13  26
TORSDOF 12
ENDMDL
