MODEL 1
REMARK minimizedAffinity -7.20709944
REMARK  4 active torsions:
REMARK  status: ('A' for Active; 'I' for Inactive)
REMARK    1  A    between atoms: O1_2  and  C2_3 
REMARK    2  A    between atoms: C5_10  and  N3_11 
REMARK    3  A    between atoms: N3_11  and  S1_12 
REMARK    4  A    between atoms: S1_12  and  C6_15 
ROOT
HETATM    1  N3  UNL     1      -8.156   5.116  14.534  1.00  0.00    -0.163 NA
HETATM    2  H6  UNL     1      -7.299   5.088  15.085  1.00  0.00     0.147 HD
ENDROOT
BRANCH   1   3
HETATM    3  C5  UNL     1      -8.794   6.374  14.630  1.00  0.00     0.146 A 
HETATM    4  C2  UNL     1      -8.226   7.553  15.134  1.00  0.00     0.182 A 
HETATM    5  N1  UNL     1      -8.915   8.721  15.161  1.00  0.00    -0.343 N 
HETATM    6  C3  UNL     1     -10.175   8.661  14.672  1.00  0.00     0.107 A 
ATOM      7  H1  UNL     1      -8.511   9.584  15.525  1.00  0.00     0.167 HD
HETATM    8  C4  UNL     1     -10.722   7.495  14.157  1.00  0.00     0.106 A 
HETATM    9  N2  UNL     1     -10.041   6.327  14.113  1.00  0.00    -0.351 N 
ATOM     10  H2  UNL     1     -10.440   5.475  13.718  1.00  0.00     0.166 HD
BRANCH   4  11
HETATM   11  O1  UNL     1      -6.910   7.537  15.545  1.00  0.00    -0.338 OA
HETATM   12  C1  UNL     1      -6.167   8.666  15.096  1.00  0.00     0.211 C 
ENDBRANCH   4  11
ENDBRANCH   1   3
BRANCH   1  13
HETATM   13  S1  UNL     1      -7.899   4.497  12.999  1.00  0.00     0.248 S 
HETATM   14  O2  UNL     1      -8.282   5.525  12.054  1.00  0.00    -0.205 OA
HETATM   15  O3  UNL     1      -8.482   3.174  12.912  1.00  0.00    -0.205 OA
BRANCH  13  16
HETATM   16  C6  UNL     1      -6.136   4.336  12.869  1.00  0.00     0.098 A 
HETATM   17  C7  UNL     1      -5.351   5.395  13.362  1.00  0.00     0.027 A 
HETATM   18  C8  UNL     1      -3.963   5.333  13.298  1.00  0.00     0.003 A 
HETATM   19  C9  UNL     1      -3.352   4.211  12.747  1.00  0.00     0.026 A 
HETATM   20  C10 UNL     1      -4.127   3.148  12.267  1.00  0.00     0.057 A 
HETATM   21 CL1  UNL     1      -3.265   1.797  11.606  1.00  0.00    -0.083 Cl
HETATM   22  C11 UNL     1      -5.531   3.194  12.327  1.00  0.00     0.078 A 
HETATM   23 CL2  UNL     1      -6.451   1.843  11.745  1.00  0.00    -0.081 Cl
ENDBRANCH  13  16
ENDBRANCH   1  13
TORSDOF 4
ENDMDL
