MODEL 1
REMARK minimizedAffinity -8.65777206
REMARK CNNscore 0.549376905
REMARK CNNaffinity 6.97167444
REMARK  9 active torsions:
REMARK  status: ('A' for Active; 'I' for Inactive)
REMARK    1  A    between atoms: C3_3  and  O1_4 
REMARK    2  A    between atoms: N1_14  and  O2_16 
REMARK    3  A    between atoms: O2_16  and  C13_17 
REMARK    4  A    between atoms: C13_17  and  C14_18 
REMARK       I    between atoms: C14_18  and  N2_20 
REMARK    5  A    between atoms: N2_20  and  C15_21 
REMARK    6  A    between atoms: C15_21  and  C16_22 
REMARK    7  A    between atoms: C15_21  and  C18_26 
REMARK    8  A    between atoms: C16_22  and  C17_23 
REMARK    9  A    between atoms: C17_23  and  O5_25 
ROOT
HETATM    1  C1  UNL     1     -13.040   3.095  30.645  1.00  0.00     0.015 C 
HETATM    2  C2  UNL     1     -13.250   2.698  29.529  1.00  0.00    -0.078 C 
HETATM    3  C3  UNL     1     -13.534   2.209  28.171  1.00  0.00     0.128 C 
HETATM    4  C4  UNL     1     -12.261   1.933  27.361  1.00  0.00     0.052 C 
HETATM    5  C5  UNL     1     -12.635   2.184  25.891  1.00  0.00     0.010 C 
HETATM    6  C6  UNL     1     -14.114   2.611  25.882  1.00  0.00     0.002 C 
HETATM    7  C7  UNL     1     -14.543   3.537  24.724  1.00  0.00    -0.004 C 
HETATM    8  C8  UNL     1     -14.202   2.916  23.362  1.00  0.00     0.010 C 
HETATM    9  C9  UNL     1     -14.762   3.761  22.228  1.00  0.00     0.035 C 
HETATM   10  C10 UNL     1     -14.272   5.188  22.290  1.00  0.00    -0.069 C 
HETATM   11  C11 UNL     1     -13.806   5.773  21.173  1.00  0.00     0.030 C 
HETATM   12  C12 UNL     1     -13.435   7.210  21.126  1.00  0.00     0.032 C 
HETATM   13  N1  UNL     1     -13.089   7.707  19.972  1.00  0.00    -0.271 N 
ATOM     14  H1  UNL     1     -13.070   7.176  19.102  1.00  0.00     0.194 HD
HETATM   15  C25 UNL     1     -13.562   8.023  22.398  1.00  0.00     0.060 C 
HETATM   16  C26 UNL     1     -13.453   7.149  23.639  1.00  0.00     0.020 C 
HETATM   17  C27 UNL     1     -14.395   5.909  23.635  1.00  0.00    -0.016 C 
HETATM   18  C28 UNL     1     -15.860   6.376  23.781  1.00  0.00     0.020 C 
HETATM   19  C29 UNL     1     -13.955   4.965  24.827  1.00  0.00     0.002 C 
HETATM   20  C30 UNL     1     -14.258   5.556  26.220  1.00  0.00     0.007 C 
HETATM   21  C31 UNL     1     -13.773   4.653  27.355  1.00  0.00     0.014 C 
HETATM   22  C32 UNL     1     -14.341   3.212  27.290  1.00  0.00     0.003 C 
HETATM   23  C33 UNL     1     -15.839   3.220  27.653  1.00  0.00     0.020 C 
ENDROOT
BRANCH   3  24
HETATM   24  O1  UNL     1     -14.247   0.973  28.280  1.00  0.00    -0.377 OA
HETATM   25  H2  UNL     1     -13.775   0.431  28.934  1.00  0.00     0.211 HD
ENDBRANCH   3  24
BRANCH  13  26
HETATM   26  O2  UNL     1     -12.746   9.063  20.076  1.00  0.00    -0.271 OA
BRANCH  26  27
HETATM   27  C13 UNL     1     -11.395   9.239  19.676  1.00  0.00     0.303 C 
BRANCH  27  28
HETATM   28  C14 UNL     1     -11.281   9.809  18.262  1.00  0.00     0.244 C 
HETATM   29  O3  UNL     1     -11.542  10.970  17.963  1.00  0.00    -0.271 OA
HETATM   30  N2  UNL     1     -10.837   8.879  17.330  1.00  0.00    -0.354 N 
HETATM   31  H16 UNL     1     -10.999   7.907  17.572  1.00  0.00     0.162 HD
BRANCH  30  32
HETATM   32  C15 UNL     1     -10.801   9.201  15.905  1.00  0.00     0.098 C 
BRANCH  32  33
HETATM   33  C16 UNL     1     -12.200   9.256  15.269  1.00  0.00     0.135 C 
BRANCH  33  34
HETATM   34  C17 UNL     1     -12.416  10.290  14.202  1.00  0.00     0.141 C 
HETATM   35  O4  UNL     1     -13.464  10.486  13.607  1.00  0.00    -0.650 OA
BRANCH  34  36
HETATM   36  O5  UNL     1     -11.319  10.993  13.873  1.00  0.00    -0.776 OA
HETATM   37  H20 UNL     1     -11.617  11.534  13.110  1.00  0.00     0.167 HD
ENDBRANCH  34  36
ENDBRANCH  33  34
ENDBRANCH  32  33
BRANCH  32  38
HETATM   38  C18 UNL     1      -9.772   8.337  15.119  1.00  0.00     0.014 C 
HETATM   39  C19 UNL     1     -10.373   7.221  14.253  1.00  0.00     0.033 C 
HETATM   40  C20 UNL     1      -9.283   6.394  13.582  1.00  0.00     0.169 C 
HETATM   41  O6  UNL     1      -8.373   5.859  14.536  1.00  0.00    -0.381 OA
HETATM   42  C21 UNL     1      -7.705   6.828  15.355  1.00  0.00     0.054 C 
HETATM   43  C22 UNL     1      -6.911   6.022  16.393  1.00  0.00     0.045 C 
HETATM   44  C23 UNL     1      -6.708   7.652  14.525  1.00  0.00     0.045 C 
HETATM   45  C24 UNL     1      -8.736   7.714  16.079  1.00  0.00     0.044 C 
ENDBRANCH  32  38
ENDBRANCH  30  32
ENDBRANCH  27  28
ENDBRANCH  26  27
ENDBRANCH  13  26
TORSDOF 9
ENDMDL
