MODEL 1
REMARK minimizedAffinity -9.87252617
REMARK  10 active torsions:
REMARK  status: ('A' for Active; 'I' for Inactive)
REMARK    1  A    between atoms: C2_2  and  C3_3 
REMARK    2  A    between atoms: C2_2  and  C9_11 
REMARK    3  A    between atoms: C3_3  and  C4_4 
REMARK    4  A    between atoms: C4_4  and  C5_5 
REMARK    5  A    between atoms: C5_5  and  O1_6 
REMARK    6  A    between atoms: C5_5  and  C6_7 
REMARK    7  A    between atoms: C6_7  and  O2_10 
REMARK    8  A    between atoms: C12_14  and  C13_15 
REMARK    9  A    between atoms: C13_15  and  O4_17 
REMARK   10  A    between atoms: C21_25  and  O5_26 
ROOT
HETATM    1  C9  UNL     1      -1.044  51.961 -24.634  1.00  0.00    -0.001 C 
HETATM    2  C10 UNL     1      -0.100  51.260 -25.648  1.00  0.00     0.007 C 
HETATM    3  C11 UNL     1      -0.888  50.061 -26.236  1.00  0.00     0.022 C 
HETATM    4  C12 UNL     1      -2.349  50.301 -25.796  1.00  0.00     0.057 C 
HETATM    5  C14 UNL     1      -3.304  49.076 -25.736  1.00  0.00     0.010 C 
HETATM    6  C15 UNL     1      -3.448  48.302 -27.057  1.00  0.00     0.010 C 
HETATM    7  C16 UNL     1      -4.683  48.628 -27.900  1.00  0.00     0.036 C 
HETATM    8  C17 UNL     1      -5.978  47.948 -27.471  1.00  0.00    -0.067 C 
HETATM    9  C18 UNL     1      -6.325  47.748 -26.174  1.00  0.00    -0.076 C 
HETATM   10  C19 UNL     1      -7.554  46.948 -25.768  1.00  0.00     0.037 C 
HETATM   11  C20 UNL     1      -8.255  46.207 -26.898  1.00  0.00     0.037 C 
HETATM   12  C21 UNL     1      -8.307  47.059 -28.156  1.00  0.00     0.130 C 
HETATM   13  C22 UNL     1      -6.877  47.459 -28.644  1.00  0.00     0.002 C 
HETATM   14  C23 UNL     1      -7.038  48.555 -29.727  1.00  0.00     0.022 C 
HETATM   15  C24 UNL     1      -6.216  46.220 -29.294  1.00  0.00     0.022 C 
HETATM   16  C25 UNL     1      -5.606  48.289 -24.943  1.00  0.00     0.039 C 
HETATM   17  C26 UNL     1      -4.663  49.497 -25.110  1.00  0.00    -0.005 C 
HETATM   18  C27 UNL     1      -4.491  50.211 -23.742  1.00  0.00     0.006 C 
HETATM   19  C28 UNL     1      -3.433  51.328 -23.718  1.00  0.00     0.011 C 
HETATM   20  C29 UNL     1      -2.105  50.861 -24.337  1.00  0.00    -0.022 C 
HETATM   21  C30 UNL     1      -1.502  49.813 -23.347  1.00  0.00     0.017 C 
ENDROOT
BRANCH   1  22
HETATM   22  C2  UNL     1      -0.384  52.701 -23.431  1.00  0.00    -0.014 C 
HETATM   23  C1  UNL     1       0.630  53.725 -23.968  1.00  0.00     0.010 C 
BRANCH  22  24
HETATM   24  C3  UNL     1       0.297  51.792 -22.380  1.00  0.00     0.007 C 
BRANCH  24  25
HETATM   25  C4  UNL     1       0.895  52.557 -21.179  1.00  0.00     0.035 C 
BRANCH  25  26
HETATM   26  C5  UNL     1      -0.167  53.004 -20.154  1.00  0.00     0.151 C 
BRANCH  26  27
HETATM   27  O1  UNL     1       0.310  54.196 -19.503  1.00  0.00    -0.393 OA
HETATM   28  H10 UNL     1       1.210  53.995 -19.191  1.00  0.00     0.210 HD
ENDBRANCH  26  27
BRANCH  26  29
HETATM   29  C6  UNL     1      -0.494  51.947 -19.060  1.00  0.00     0.076 C 
HETATM   30  C7  UNL     1       0.423  52.054 -17.840  1.00  0.00     0.048 C 
HETATM   31  C8  UNL     1      -0.404  50.527 -19.638  1.00  0.00     0.048 C 
BRANCH  29  32
HETATM   32  O2  UNL     1      -1.841  52.153 -18.602  1.00  0.00    -0.388 OA
HETATM   33  H17 UNL     1      -2.432  51.773 -19.276  1.00  0.00     0.210 HD
ENDBRANCH  29  32
ENDBRANCH  26  29
ENDBRANCH  25  26
ENDBRANCH  24  25
ENDBRANCH  22  24
ENDBRANCH   1  22
BRANCH   4  34
HETATM   34  C13 UNL     1      -2.958  51.339 -26.783  1.00  0.00     0.149 C 
HETATM   35  O3  UNL     1      -3.050  51.256 -27.996  1.00  0.00    -0.649 OA
BRANCH  34  36
HETATM   36  O4  UNL     1      -3.383  52.474 -26.190  1.00  0.00    -0.776 OA
HETATM   37  H23 UNL     1      -3.714  53.013 -26.938  1.00  0.00     0.167 HD
ENDBRANCH  34  36
ENDBRANCH   4  34
BRANCH  12  38
HETATM   38  O5  UNL     1      -9.125  48.209 -27.905  1.00  0.00    -0.394 OA
HETATM   39  H34 UNL     1      -8.620  48.802 -27.320  1.00  0.00     0.210 HD
ENDBRANCH  12  38
TORSDOF 10
ENDMDL
