MODEL 1
REMARK minimizedAffinity -10.3896475
REMARK CNNscore 0.596488535
REMARK CNNaffinity 7.15167856
REMARK  9 active torsions:
REMARK  status: ('A' for Active; 'I' for Inactive)
REMARK    1  A    between atoms: C2_2  and  C3_3 
REMARK    2  A    between atoms: C2_2  and  C11_13 
REMARK    3  A    between atoms: C3_3  and  C4_4 
REMARK    4  A    between atoms: C4_4  and  C5_5 
REMARK    5  A    between atoms: C5_5  and  C8_9 
REMARK    6  A    between atoms: C6_6  and  C7_7 
REMARK    7  A    between atoms: C7_7  and  O1_8 
REMARK    8  A    between atoms: C8_9  and  O2_12 
REMARK    9  A    between atoms: C25_27  and  O3_28 
ROOT
HETATM    1  C11 UNL     1      -1.545   5.351  11.443  1.00  0.00     0.005 C 
HETATM    2  C12 UNL     1      -2.014   3.963  10.950  1.00  0.00     0.033 C 
HETATM    3  C13 UNL     1      -3.432   3.915  11.409  1.00  0.00    -0.018 C 
HETATM    4  C14 UNL     1      -3.674   4.820  12.366  1.00  0.00    -0.047 C 
HETATM    5  C15 UNL     1      -4.935   5.106  13.032  1.00  0.00    -0.048 C 
HETATM    6  C16 UNL     1      -5.078   6.228  13.781  1.00  0.00    -0.064 C 
HETATM    7  C17 UNL     1      -3.942   7.234  13.925  1.00  0.00     0.036 C 
HETATM    8  C18 UNL     1      -2.793   7.057  12.925  1.00  0.00     0.019 C 
HETATM    9  C19 UNL     1      -2.410   5.585  12.729  1.00  0.00    -0.012 C 
HETATM   10  C20 UNL     1      -1.795   4.975  14.005  1.00  0.00     0.021 C 
HETATM   11  C21 UNL     1      -6.373   6.509  14.579  1.00  0.00    -0.016 C 
HETATM   12  C22 UNL     1      -6.097   6.039  16.031  1.00  0.00     0.020 C 
HETATM   13  C23 UNL     1      -6.767   8.015  14.605  1.00  0.00     0.016 C 
HETATM   14  C24 UNL     1      -8.112   8.283  15.285  1.00  0.00     0.033 C 
HETATM   15  C25 UNL     1      -9.241   7.454  14.681  1.00  0.00     0.118 C 
HETATM   16  C26 UNL     1      -8.900   5.966  14.629  1.00  0.00     0.037 C 
HETATM   17  C27 UNL     1      -7.561   5.741  13.916  1.00  0.00     0.001 C 
HETATM   18  C28 UNL     1      -7.245   4.256  13.770  1.00  0.00     0.010 C 
HETATM   19  C29 UNL     1      -6.026   4.064  12.872  1.00  0.00     0.040 C 
ENDROOT
BRANCH   1  20
HETATM   20  C2  UNL     1       0.000   5.448  11.558  1.00  0.00    -0.013 C 
HETATM   21  C1  UNL     1       0.471   5.822  12.968  1.00  0.00     0.010 C 
BRANCH  20  22
HETATM   22  C3  UNL     1       0.620   6.422  10.514  1.00  0.00     0.009 C 
BRANCH  22  23
HETATM   23  C4  UNL     1       1.898   5.917   9.819  1.00  0.00     0.037 C 
BRANCH  23  24
HETATM   24  C5  UNL     1       2.758   7.048   9.254  1.00  0.00    -0.049 C 
HETATM   25  C6  UNL     1       3.970   7.339   9.783  1.00  0.00     0.004 C 
BRANCH  25  26
HETATM   26  C7  UNL     1       4.665   6.684  10.935  1.00  0.00     0.191 C 
BRANCH  26  27
HETATM   27  O1  UNL     1       5.238   5.473  10.464  1.00  0.00    -0.397 OA
HETATM   28  H12 UNL     1       4.504   4.930  10.126  1.00  0.00     0.209 HD
ENDBRANCH  26  27
ENDBRANCH  25  26
BRANCH  24  29
HETATM   29  C8  UNL     1       2.191   7.776   8.019  1.00  0.00     0.074 C 
HETATM   30  C9  UNL     1       2.040   6.850   6.805  1.00  0.00     0.050 C 
HETATM   31  C10 UNL     1       0.851   8.500   8.233  1.00  0.00     0.050 C 
BRANCH  29  32
HETATM   32  O2  UNL     1       3.139   8.789   7.661  1.00  0.00    -0.386 OA
HETATM   33  H19 UNL     1       3.286   9.328   8.456  1.00  0.00     0.211 HD
ENDBRANCH  29  32
ENDBRANCH  24  29
ENDBRANCH  23  24
ENDBRANCH  22  23
ENDBRANCH  20  22
ENDBRANCH   1  20
BRANCH  15  34
HETATM   34  O3  UNL     1     -10.433   7.644  15.437  1.00  0.00    -0.396 OA
HETATM   35  H39 UNL     1     -10.269   7.333  16.344  1.00  0.00     0.210 HD
ENDBRANCH  15  34
TORSDOF 9
ENDMDL
