MODEL 1
REMARK minimizedAffinity -9.01530361
REMARK  9 active torsions:
REMARK  status: ('A' for Active; 'I' for Inactive)
REMARK    1  A    between atoms: C2_2  and  C3_3 
REMARK    2  A    between atoms: C2_2  and  C9_12 
REMARK    3  A    between atoms: C3_3  and  C4_4 
REMARK    4  A    between atoms: C4_4  and  C5_5 
REMARK    5  A    between atoms: C5_5  and  O1_6 
REMARK    6  A    between atoms: C5_5  and  C6_7 
REMARK    7  A    between atoms: C6_7  and  O2_9 
REMARK    8  A    between atoms: C6_7  and  C8_10 
REMARK    9  A    between atoms: C8_10  and  O3_11 
ROOT
HETATM    1  C9  UNL     1      -5.675   5.814  13.931  1.00  0.00    -0.002 C 
HETATM    2  C10 UNL     1      -5.363   7.257  13.481  1.00  0.00     0.007 C 
HETATM    3  C11 UNL     1      -6.506   8.155  13.941  1.00  0.00     0.015 C 
HETATM    4  C12 UNL     1      -7.443   7.294  14.815  1.00  0.00    -0.005 C 
HETATM    5  C13 UNL     1      -6.983   7.369  16.298  1.00  0.00     0.021 C 
HETATM    6  C14 UNL     1      -8.897   7.786  14.684  1.00  0.00    -0.000 C 
HETATM    7  C15 UNL     1      -9.870   7.125  14.008  1.00  0.00    -0.060 C 
HETATM    8  C16 UNL     1      -9.541   5.880  13.205  1.00  0.00     0.036 C 
HETATM    9  C17 UNL     1      -8.051   5.675  12.945  1.00  0.00     0.015 C 
HETATM   10  C18 UNL     1      -7.215   5.837  14.232  1.00  0.00    -0.028 C 
HETATM   11  C19 UNL     1      -7.621   4.747  15.252  1.00  0.00     0.016 C 
HETATM   12  C20 UNL     1     -11.346   7.602  13.961  1.00  0.00    -0.014 C 
HETATM   13  C21 UNL     1     -11.484   8.447  12.675  1.00  0.00     0.020 C 
HETATM   14  C22 UNL     1     -12.329   6.401  13.903  1.00  0.00     0.021 C 
HETATM   15  C23 UNL     1     -13.790   6.803  14.015  1.00  0.00     0.080 C 
HETATM   16  C24 UNL     1     -14.036   7.550  15.300  1.00  0.00     0.135 C 
HETATM   17  O4  UNL     1     -14.992   7.244  16.014  1.00  0.00    -0.297 OA
HETATM   18  C25 UNL     1     -13.127   8.750  15.608  1.00  0.00     0.018 C 
HETATM   19  C26 UNL     1     -13.262   9.064  17.121  1.00  0.00     0.023 C 
HETATM   20  C27 UNL     1     -13.676   9.966  14.847  1.00  0.00     0.023 C 
HETATM   21  C28 UNL     1     -11.636   8.375  15.292  1.00  0.00     0.020 C 
HETATM   22  C29 UNL     1     -10.670   9.553  15.427  1.00  0.00     0.090 C 
HETATM   23  C30 UNL     1      -9.228   9.134  15.273  1.00  0.00     0.157 C 
HETATM   24  O5  UNL     1      -8.338   9.926  15.581  1.00  0.00    -0.293 OA
ENDROOT
BRANCH   1  25
HETATM   25  C2  UNL     1      -5.093   4.761  12.931  1.00  0.00    -0.014 C 
HETATM   26  C1  UNL     1      -5.966   3.505  12.825  1.00  0.00     0.010 C 
BRANCH  25  27
HETATM   27  C3  UNL     1      -3.646   4.368  13.348  1.00  0.00     0.007 C 
BRANCH  27  28
HETATM   28  C4  UNL     1      -2.574   5.389  12.937  1.00  0.00     0.035 C 
BRANCH  28  29
HETATM   29  C5  UNL     1      -1.908   6.149  14.102  1.00  0.00     0.154 C 
BRANCH  29  30
HETATM   30  O1  UNL     1      -2.221   5.443  15.314  1.00  0.00    -0.392 OA
HETATM   31  H10 UNL     1      -1.848   5.979  16.048  1.00  0.00     0.210 HD
ENDBRANCH  29  30
BRANCH  29  32
HETATM   32  C6  UNL     1      -0.365   6.354  14.019  1.00  0.00     0.101 C 
HETATM   33  C7  UNL     1       0.101   6.828  12.644  1.00  0.00     0.051 C 
BRANCH  32  34
HETATM   34  O2  UNL     1       0.298   5.112  14.319  1.00  0.00    -0.385 OA
HETATM   35  H14 UNL     1      -0.333   4.605  14.870  1.00  0.00     0.210 HD
ENDBRANCH  32  34
BRANCH  32  36
HETATM   36  C8  UNL     1       0.101   7.368  15.089  1.00  0.00     0.204 C 
BRANCH  36  37
HETATM   37  O3  UNL     1       0.351   6.703  16.332  1.00  0.00    -0.398 OA
HETATM   38  H17 UNL     1       1.171   6.192  16.184  1.00  0.00     0.209 HD
ENDBRANCH  36  37
ENDBRANCH  32  36
ENDBRANCH  29  32
ENDBRANCH  28  29
ENDBRANCH  27  28
ENDBRANCH  25  27
ENDBRANCH   1  25
TORSDOF 9
ENDMDL
