MODEL 1
REMARK minimizedAffinity -7.63280725
REMARK CNNscore 0.803063154
REMARK CNNaffinity 7.04355764
REMARK  4 active torsions:
REMARK  status: ('A' for Active; 'I' for Inactive)
REMARK    1  A    between atoms: C4_4  and  C5_5 
REMARK    2  A    between atoms: C5_5  and  C6_6 
REMARK    3  A    between atoms: C6_6  and  C7_7 
REMARK    4  A    between atoms: C7_7  and  C9_9 
ROOT
HETATM    1  C9  UNL     1      -1.405  52.978 -10.117  1.00  0.00    -0.002 C 
HETATM    2  C10 UNL     1      -0.971  52.836 -11.602  1.00  0.00     0.006 C 
HETATM    3  C11 UNL     1       0.348  53.637 -11.769  1.00  0.00     0.011 C 
HETATM    4  C12 UNL     1       0.805  53.951 -10.330  1.00  0.00    -0.032 C 
HETATM    5  C13 UNL     1       1.546  52.670  -9.827  1.00  0.00     0.016 C 
HETATM    6  C14 UNL     1       1.743  55.190 -10.119  1.00  0.00     0.004 C 
HETATM    7  C15 UNL     1       3.026  55.136 -10.967  1.00  0.00     0.007 C 
HETATM    8  C16 UNL     1       4.376  54.992 -10.261  1.00  0.00     0.007 C 
HETATM    9  C17 UNL     1       4.349  54.385  -8.849  1.00  0.00     0.010 C 
HETATM   10  C18 UNL     1       5.767  54.386  -8.175  1.00  0.00     0.018 C 
HETATM   11  C19 UNL     1       6.741  53.479  -8.955  1.00  0.00     0.023 C 
HETATM   12  C20 UNL     1       6.408  55.782  -8.072  1.00  0.00     0.023 C 
HETATM   13  C21 UNL     1       5.613  53.831  -6.752  1.00  0.00     0.135 C 
HETATM   14  O1  UNL     1       6.281  52.897  -6.319  1.00  0.00    -0.297 OA
HETATM   15  C22 UNL     1       4.591  54.510  -5.877  1.00  0.00     0.080 C 
HETATM   16  C23 UNL     1       3.235  54.429  -6.556  1.00  0.00     0.018 C 
HETATM   17  C24 UNL     1       3.273  55.028  -7.955  1.00  0.00    -0.026 A 
HETATM   18  C25 UNL     1       2.932  56.487  -8.142  1.00  0.00     0.021 A 
HETATM   19  C26 UNL     1       1.936  55.439  -8.602  1.00  0.00    -0.027 A 
HETATM   20  C27 UNL     1       0.613  55.481  -7.809  1.00  0.00     0.011 C 
HETATM   21  C28 UNL     1      -0.367  54.341  -8.130  1.00  0.00     0.011 C 
HETATM   22  C29 UNL     1      -0.590  54.220  -9.644  1.00  0.00    -0.032 C 
HETATM   23  C30 UNL     1      -1.304  55.518 -10.132  1.00  0.00     0.016 C 
ENDROOT
BRANCH   1  24
HETATM   24  C7  UNL     1      -2.935  52.943  -9.818  1.00  0.00    -0.014 C 
HETATM   25  C8  UNL     1      -3.826  53.593 -10.882  1.00  0.00     0.010 C 
BRANCH  24  26
HETATM   26  C6  UNL     1      -3.383  51.475  -9.581  1.00  0.00     0.008 C 
BRANCH  26  27
HETATM   27  C5  UNL     1      -4.524  51.020 -10.499  1.00  0.00     0.028 C 
BRANCH  27  28
HETATM   28  C4  UNL     1      -4.840  49.563 -10.300  1.00  0.00    -0.025 C 
HETATM   29  C2  UNL     1      -6.031  49.023  -9.971  1.00  0.00    -0.091 C 
HETATM   30  C1  UNL     1      -7.296  49.797  -9.688  1.00  0.00     0.042 C 
HETATM   31  C3  UNL     1      -6.184  47.530  -9.848  1.00  0.00     0.042 C 
ENDBRANCH  27  28
ENDBRANCH  26  27
ENDBRANCH  24  26
ENDBRANCH   1  24
TORSDOF 4
ENDMDL
