MODEL 1
REMARK minimizedAffinity -6.57978535
REMARK CNNscore 0.705972075
REMARK CNNaffinity 6.15638113
REMARK  6 active torsions:
REMARK  status: ('A' for Active; 'I' for Inactive)
REMARK    1  A    between atoms: O1_2  and  C2_3 
REMARK    2  A    between atoms: C17_20  and  C18_21 
REMARK    3  A    between atoms: C22_27  and  O6_28 
REMARK    4  A    between atoms: O6_28  and  C23_29 
REMARK    5  A    between atoms: C26_33  and  O8_34 
REMARK    6  A    between atoms: C31_40  and  O10_41 
ROOT
HETATM    1  C2  UNL     1      -7.989  47.387 -26.346  1.00  0.00     0.190 C 
HETATM    2  C3  UNL     1      -6.628  47.721 -26.980  1.00  0.00     0.064 C 
HETATM    3  C4  UNL     1      -6.641  47.627 -28.504  1.00  0.00     0.174 C 
HETATM    4  O2  UNL     1      -7.520  46.609 -28.965  1.00  0.00    -0.356 OA
HETATM    5  C5  UNL     1      -8.895  46.869 -28.662  1.00  0.00     0.325 C 
HETATM    6  O3  UNL     1      -9.590  45.625 -28.589  1.00  0.00    -0.344 OA
HETATM    7  C6  UNL     1     -11.002  45.826 -28.531  1.00  0.00     0.177 C 
HETATM    8  C7  UNL     1     -11.632  44.517 -28.161  1.00  0.00     0.011 C 
HETATM    9  C8  UNL     1     -12.847  44.425 -27.589  1.00  0.00    -0.072 C 
HETATM   10  C9  UNL     1     -13.396  43.086 -27.174  1.00  0.00     0.035 C 
HETATM   11  C10 UNL     1     -14.922  42.964 -27.097  1.00  0.00     0.012 C 
HETATM   12  C11 UNL     1     -15.705  44.242 -26.713  1.00  0.00     0.026 C 
HETATM   13  C12 UNL     1     -14.763  45.367 -26.216  1.00  0.00     0.005 C 
HETATM   14  C13 UNL     1     -14.229  45.058 -24.795  1.00  0.00     0.007 C 
HETATM   15  C14 UNL     1     -15.081  44.064 -24.002  1.00  0.00     0.013 C 
HETATM   16  C15 UNL     1     -16.606  44.235 -24.226  1.00  0.00    -0.003 C 
HETATM   17  C16 UNL     1     -17.004  45.606 -23.627  1.00  0.00     0.019 C 
HETATM   18  C17 UNL     1     -17.356  43.043 -23.523  1.00  0.00     0.058 C 
HETATM   19  C22 UNL     1     -17.378  41.954 -24.620  1.00  0.00     0.143 C 
HETATM   20  C25 UNL     1     -17.679  42.724 -25.901  1.00  0.00     0.072 C 
HETATM   21  C26 UNL     1     -16.935  44.068 -25.757  1.00  0.00     0.072 C 
HETATM   22  C27 UNL     1     -13.643  45.681 -27.273  1.00  0.00    -0.014 C 
HETATM   23  C28 UNL     1     -14.303  46.212 -28.575  1.00  0.00     0.020 C 
HETATM   24  C29 UNL     1     -12.663  46.759 -26.744  1.00  0.00     0.049 C 
HETATM   25  C30 UNL     1     -11.428  47.029 -27.633  1.00  0.00     0.159 C 
HETATM   26  O9  UNL     1     -10.399  47.478 -26.738  1.00  0.00    -0.341 OA
HETATM   27  C31 UNL     1      -9.130  47.700 -27.354  1.00  0.00     0.240 C 
ENDROOT
BRANCH  18  28
HETATM   28  C18 UNL     1     -18.708  43.342 -22.910  1.00  0.00    -0.043 A 
HETATM   29  C19 UNL     1     -19.873  43.235 -23.552  1.00  0.00     0.087 A 
HETATM   30  C20 UNL     1     -20.924  43.618 -22.615  1.00  0.00     0.283 A 
HETATM   31  O4  UNL     1     -22.114  43.637 -22.872  1.00  0.00    -0.260 OA
HETATM   32  O5  UNL     1     -20.358  43.949 -21.425  1.00  0.00    -0.314 OA
HETATM   33  C21 UNL     1     -18.939  43.819 -21.526  1.00  0.00     0.214 A 
ENDBRANCH  18  28
BRANCH  19  34
HETATM   34  O6  UNL     1     -18.361  40.933 -24.416  1.00  0.00    -0.316 OA
BRANCH  34  35
HETATM   35  C23 UNL     1     -18.259  39.861 -25.252  1.00  0.00     0.255 C 
HETATM   36  C24 UNL     1     -16.930  39.192 -25.075  1.00  0.00     0.126 C 
HETATM   37  O7  UNL     1     -19.129  39.480 -26.023  1.00  0.00    -0.266 OA
ENDBRANCH  34  35
ENDBRANCH  19  34
BRANCH  21  38
HETATM   38  O8  UNL     1     -17.887  45.086 -26.121  1.00  0.00    -0.389 OA
HETATM   39  H35 UNL     1     -18.136  44.956 -27.054  1.00  0.00     0.210 HD
ENDBRANCH  21  38
BRANCH  27  40
HETATM   40  O10 UNL     1      -9.067  49.111 -27.630  1.00  0.00    -0.360 OA
HETATM   41  H42 UNL     1      -9.746  49.295 -28.296  1.00  0.00     0.213 HD
ENDBRANCH  27  40
BRANCH   1  42
HETATM   42  O1  UNL     1      -7.922  46.005 -25.945  1.00  0.00    -0.385 OA
HETATM   43  C1  UNL     1      -8.181  45.786 -24.565  1.00  0.00     0.202 C 
ENDBRANCH   1  42
TORSDOF 6
ENDMDL
