MODEL 1
REMARK minimizedAffinity -7.0568347
REMARK CNNscore 0.845187128
REMARK CNNaffinity 6.610044
REMARK  12 active torsions:
REMARK  status: ('A' for Active; 'I' for Inactive)
REMARK    1  A    between atoms: O1_2  and  P1_3 
REMARK    2  A    between atoms: P1_3  and  O3_5 
REMARK    3  A    between atoms: P1_3  and  O4_6 
REMARK    4  A    between atoms: O4_6  and  C2_7 
REMARK    5  A    between atoms: C4_10  and  C5_11 
REMARK    6  A    between atoms: C5_11  and  C7_13 
REMARK    7  A    between atoms: C20_26  and  O6_27 
REMARK    8  A    between atoms: C21_28  and  O7_29 
REMARK    9  A    between atoms: C23_31  and  O8_32 
REMARK   10  A    between atoms: C24_33  and  O9_34 
REMARK   11  A    between atoms: O9_34  and  S1_35 
REMARK   12  A    between atoms: S1_35  and  O12_38 
ROOT
HETATM    1  C2  UNL     1       0.277  11.417  16.664  1.00  0.00     0.168 C 
HETATM    2  C3  UNL     1      -0.845  11.971  17.568  1.00  0.00     0.157 C 
HETATM    3  O5  UNL     1      -0.637  13.319  17.960  1.00  0.00    -0.377 OA
HETATM    4  C4  UNL     1      -1.795  13.994  18.481  1.00  0.00     0.126 C 
HETATM    5  C10 UNL     1      -2.955  13.023  18.822  1.00  0.00     0.037 C 
HETATM    6  C11 UNL     1      -3.329  12.038  17.689  1.00  0.00    -0.009 C 
HETATM    7  C12 UNL     1      -4.608  12.467  16.968  1.00  0.00     0.010 C 
HETATM    8  C13 UNL     1      -2.135  11.871  16.741  1.00  0.00     0.030 C 
HETATM    9  C14 UNL     1      -1.927  10.581  15.916  1.00  0.00    -0.031 C 
HETATM   10  C15 UNL     1      -2.101   9.305  16.769  1.00  0.00     0.016 C 
HETATM   11  C16 UNL     1      -2.778  10.488  14.643  1.00  0.00     0.010 C 
HETATM   12  C17 UNL     1      -2.325   9.334  13.730  1.00  0.00     0.007 C 
HETATM   13  C18 UNL     1      -0.797   9.297  13.443  1.00  0.00     0.001 C 
HETATM   14  C19 UNL     1       0.114   9.654  14.658  1.00  0.00     0.029 C 
HETATM   15  C20 UNL     1       1.546   9.966  14.153  1.00  0.00     0.152 C 
HETATM   16  C21 UNL     1       1.921   9.173  12.883  1.00  0.00     0.154 C 
HETATM   17  C22 UNL     1       1.265   7.782  12.920  1.00  0.00     0.057 C 
HETATM   18  C23 UNL     1       1.926   6.757  11.971  1.00  0.00     0.156 C 
HETATM   19  C24 UNL     1       1.556   6.974  10.502  1.00  0.00     0.173 C 
HETATM   20  C25 UNL     1       0.033   7.007  10.333  1.00  0.00     0.037 C 
HETATM   21  C26 UNL     1      -0.630   8.068  11.213  1.00  0.00     0.012 C 
HETATM   22  C27 UNL     1      -0.291   7.960  12.730  1.00  0.00    -0.031 C 
HETATM   23  C28 UNL     1      -1.014   6.724  13.323  1.00  0.00     0.016 C 
HETATM   24  C29 UNL     1      -0.471  10.840  15.441  1.00  0.00     0.033 C 
ENDROOT
BRANCH   1  25
HETATM   25  O4  UNL     1       1.007  10.389  17.316  1.00  0.00    -0.288 OA
BRANCH  25  26
HETATM   26  P1  UNL     1       2.171  10.789  18.351  1.00  0.00     0.393 P 
HETATM   27  O2  UNL     1       3.537  10.387  17.897  1.00  0.00    -0.631 OA
BRANCH  26  28
HETATM   28  O1  UNL     1       1.732  10.216  19.777  1.00  0.00    -0.302 OA
HETATM   29  C1  UNL     1       1.971  11.058  20.887  1.00  0.00     0.214 C 
ENDBRANCH  26  28
BRANCH  26  30
HETATM   30  O3  UNL     1       2.060  12.378  18.525  1.00  0.00    -0.307 OA
HETATM   31  H4  UNL     1       2.953  12.763  18.602  1.00  0.00     0.222 HD
ENDBRANCH  26  30
ENDBRANCH  25  26
ENDBRANCH   1  25
BRANCH   4  32
HETATM   32  C5  UNL     1      -2.191  15.175  17.542  1.00  0.00     0.014 C 
HETATM   33  C6  UNL     1      -2.319  16.488  18.334  1.00  0.00     0.013 C 
BRANCH  32  34
HETATM   34  C7  UNL     1      -1.251  15.404  16.315  1.00  0.00    -0.017 C 
HETATM   35  C8  UNL     1      -0.678  16.825  16.263  1.00  0.00     0.010 C 
HETATM   36  C9  UNL     1      -1.888  15.038  14.972  1.00  0.00     0.010 C 
ENDBRANCH  32  34
ENDBRANCH   4  32
BRANCH  15  37
HETATM   37  O6  UNL     1       2.535   9.642  15.141  1.00  0.00    -0.393 OA
HETATM   38  H36 UNL     1       2.138   9.052  15.811  1.00  0.00     0.210 HD
ENDBRANCH  15  37
BRANCH  16  39
HETATM   39  O7  UNL     1       3.354   9.096  12.774  1.00  0.00    -0.392 OA
HETATM   40  H38 UNL     1       3.654   9.161  13.712  1.00  0.00     0.210 HD
ENDBRANCH  16  39
BRANCH  18  41
HETATM   41  O8  UNL     1       1.566   5.423  12.337  1.00  0.00    -0.392 OA
HETATM   42  H41 UNL     1       2.087   5.179  13.120  1.00  0.00     0.210 HD
ENDBRANCH  18  41
BRANCH  19  43
HETATM   43  O9  UNL     1       2.104   8.201  10.033  1.00  0.00    -0.256 OA
BRANCH  43  44
HETATM   44  S1  UNL     1       3.447   8.173   9.119  1.00  0.00     0.240 S 
HETATM   45  O10 UNL     1       3.174   8.803   7.847  1.00  0.00    -0.579 OA
HETATM   46  O11 UNL     1       4.555   8.590   9.939  1.00  0.00    -0.579 OA
BRANCH  44  47
HETATM   47  O12 UNL     1       3.612   6.602   8.820  1.00  0.00    -0.274 OA
HETATM   48  H43 UNL     1       2.760   6.267   8.440  1.00  0.00     0.234 HD
ENDBRANCH  44  47
ENDBRANCH  43  44
ENDBRANCH  19  43
TORSDOF 12
ENDMDL
