MODEL 1
REMARK minimizedAffinity -7.90854836
REMARK CNNscore 0.728417337
REMARK CNNaffinity 6.2002883
REMARK  11 active torsions:
REMARK  status: ('A' for Active; 'I' for Inactive)
REMARK    1  A    between atoms: C12_13  and  O2_14 
REMARK    2  A    between atoms: C19_21  and  O3_22 
REMARK    3  A    between atoms: C19_21  and  C20_23 
REMARK    4  A    between atoms: C20_23  and  C21_25 
REMARK    5  A    between atoms: C21_25  and  O5_26 
REMARK    6  A    between atoms: O5_26  and  C22_27 
REMARK    7  A    between atoms: C22_27  and  C23_29 
REMARK    8  A    between atoms: C23_29  and  C24_30 
REMARK    9  A    between atoms: C24_30  and  C25_31 
REMARK       I    between atoms: C25_31  and  N1_33 
REMARK   10  A    between atoms: N1_33  and  C26_34 
REMARK   11  A    between atoms: C26_34  and  C27_35 
ROOT
HETATM    1  C1  UNL     1     -10.571  14.169  22.849  1.00  0.00     0.025 C 
HETATM    2  C2  UNL     1      -9.551  13.030  22.624  1.00  0.00     0.004 A 
HETATM    3  C3  UNL     1      -8.373  13.323  23.546  1.00  0.00    -0.009 A 
HETATM    4  C4  UNL     1      -7.123  13.587  23.144  1.00  0.00     0.052 A 
HETATM    5  C5  UNL     1      -6.777  13.611  21.711  1.00  0.00     0.172 A 
HETATM    6  O1  UNL     1      -5.635  13.847  21.335  1.00  0.00    -0.289 OA
HETATM    7  C6  UNL     1      -7.860  13.328  20.748  1.00  0.00     0.058 A 
HETATM    8  C7  UNL     1      -9.115  13.061  21.151  1.00  0.00    -0.064 A 
HETATM    9  C8  UNL     1     -10.180  12.712  20.144  1.00  0.00     0.036 C 
HETATM   10  C9  UNL     1     -10.737  11.322  20.432  1.00  0.00     0.010 C 
HETATM   11  C10 UNL     1     -11.234  11.178  21.882  1.00  0.00    -0.002 C 
HETATM   12  C11 UNL     1     -10.121  11.586  22.907  1.00  0.00     0.035 C 
HETATM   13  C12 UNL     1     -10.553  11.303  24.376  1.00  0.00     0.124 C 
HETATM   14  C13 UNL     1     -11.127   9.884  24.590  1.00  0.00     0.045 C 
HETATM   15  C14 UNL     1     -12.238   9.510  23.584  1.00  0.00     0.001 C 
HETATM   16  C15 UNL     1     -13.521  10.342  23.846  1.00  0.00     0.019 C 
HETATM   17  C16 UNL     1     -11.653   9.728  22.167  1.00  0.00     0.002 C 
HETATM   18  C17 UNL     1     -12.681   9.076  21.251  1.00  0.00     0.009 C 
HETATM   19  C18 UNL     1     -13.187   7.861  22.052  1.00  0.00     0.047 C 
HETATM   20  C19 UNL     1     -12.601   7.993  23.491  1.00  0.00     0.128 C 
ENDROOT
BRANCH  20  21
HETATM   21  O3  UNL     1     -11.406   7.204  23.518  1.00  0.00    -0.381 OA
HETATM   22  H25 UNL     1     -11.685   6.272  23.403  1.00  0.00     0.211 HD
ENDBRANCH  20  21
BRANCH  20  23
HETATM   23  C20 UNL     1     -13.598   7.487  24.568  1.00  0.00     0.185 C 
HETATM   24  O4  UNL     1     -13.640   7.985  25.698  1.00  0.00    -0.292 OA
BRANCH  23  25
HETATM   25  C21 UNL     1     -14.506   6.292  24.242  1.00  0.00     0.260 C 
BRANCH  25  26
HETATM   26  O5  UNL     1     -14.060   4.952  24.390  1.00  0.00    -0.314 OA
BRANCH  26  27
HETATM   27  C22 UNL     1     -14.003   4.233  23.235  1.00  0.00     0.259 C 
HETATM   28  O6  UNL     1     -14.113   4.711  22.116  1.00  0.00    -0.265 OA
BRANCH  27  29
HETATM   29  C23 UNL     1     -13.755   2.776  23.547  1.00  0.00     0.120 C 
BRANCH  29  30
HETATM   30  C24 UNL     1     -12.272   2.513  23.789  1.00  0.00     0.112 C 
BRANCH  30  31
HETATM   31  C25 UNL     1     -12.056   1.662  25.026  1.00  0.00     0.218 C 
HETATM   32  O7  UNL     1     -11.535   0.552  24.985  1.00  0.00    -0.274 OA
HETATM   33  N1  UNL     1     -12.528   2.247  26.180  1.00  0.00    -0.357 N 
HETATM   34  H32 UNL     1     -12.812   3.218  26.144  1.00  0.00     0.162 HD
BRANCH  33  35
HETATM   35  C26 UNL     1     -12.166   1.732  27.483  1.00  0.00     0.161 C 
BRANCH  35  36
HETATM   36  C27 UNL     1     -12.643   2.673  28.558  1.00  0.00    -0.038 A 
HETATM   37  C28 UNL     1     -13.400   3.806  28.244  1.00  0.00     0.025 A 
HETATM   38  C29 UNL     1     -13.768   4.662  29.272  1.00  0.00     0.088 A 
HETATM   39  N2  UNL     1     -13.432   4.476  30.565  1.00  0.00    -0.375 N 
HETATM   40  C30 UNL     1     -12.702   3.375  30.849  1.00  0.00     0.088 A 
ATOM     41  H2  UNL     1     -13.716   5.133  31.292  1.00  0.00     0.164 HD
HETATM   42  C31 UNL     1     -12.294   2.457  29.896  1.00  0.00     0.025 A 
ENDBRANCH  35  36
ENDBRANCH  33  35
ENDBRANCH  30  31
ENDBRANCH  29  30
ENDBRANCH  27  29
ENDBRANCH  26  27
ENDBRANCH  25  26
ENDBRANCH  23  25
ENDBRANCH  20  23
BRANCH  13  43
HETATM   43  O2  UNL     1     -11.501  12.262  24.825  1.00  0.00    -0.395 OA
HETATM   44  H14 UNL     1     -11.664  12.103  25.772  1.00  0.00     0.210 HD
ENDBRANCH  13  43
TORSDOF 11
ENDMDL
