MODEL 1
REMARK minimizedAffinity -9.28941917
REMARK CNNscore 0.640365183
REMARK CNNaffinity 7.62885666
REMARK  15 active torsions:
REMARK  status: ('A' for Active; 'I' for Inactive)
REMARK    1  A    between atoms: O1_2  and  C2_3 
REMARK    2  A    between atoms: C10_14  and  C11_15 
REMARK    3  A    between atoms: C11_15  and  C12_16 
REMARK    4  A    between atoms: C12_16  and  O5_17 
REMARK    5  A    between atoms: C12_16  and  C13_18 
REMARK    6  A    between atoms: C13_18  and  C14_19 
REMARK    7  A    between atoms: C15_20  and  C16_21 
REMARK    8  A    between atoms: C17_22  and  C19_24 
REMARK    9  A    between atoms: C19_24  and  C20_25 
REMARK   10  A    between atoms: C21_26  and  C22_27 
REMARK   11  A    between atoms: C23_28  and  C24_29 
REMARK   12  A    between atoms: C24_29  and  C25_30 
REMARK   13  A    between atoms: C25_30  and  O6_31 
REMARK   14  A    between atoms: C32_39  and  O8_40 
REMARK   15  A    between atoms: C33_41  and  O9_42 
ROOT
HETATM    1  C2  UNL     1      -0.767  51.750 -25.932  1.00  0.00     0.192 C 
HETATM    2  C3  UNL     1      -0.284  53.082 -25.313  1.00  0.00     0.074 C 
HETATM    3  C4  UNL     1       0.617  52.974 -24.061  1.00  0.00     0.037 C 
HETATM    4  C5  UNL     1       0.172  52.059 -22.908  1.00  0.00     0.122 C 
HETATM    5  C6  UNL     1       1.114  52.151 -21.721  1.00  0.00     0.035 C 
HETATM    6  C7  UNL     1       0.281  51.531 -20.629  1.00  0.00     0.045 C 
HETATM    7  C8  UNL     1      -1.146  51.970 -20.970  1.00  0.00     0.221 C 
HETATM    8  O2  UNL     1      -1.113  52.396 -22.349  1.00  0.00    -0.371 OA
HETATM    9  C9  UNL     1      -2.154  50.862 -20.565  1.00  0.00     0.288 C 
HETATM   10  O3  UNL     1      -1.936  50.016 -19.703  1.00  0.00    -0.262 OA
HETATM   11  O4  UNL     1      -3.327  50.953 -21.253  1.00  0.00    -0.314 OA
HETATM   12  C10 UNL     1      -4.309  49.892 -21.069  1.00  0.00     0.134 C 
HETATM   13  C26 UNL     1      -3.923  48.606 -21.853  1.00  0.00     0.033 C 
HETATM   14  C27 UNL     1      -3.832  48.699 -23.397  1.00  0.00     0.005 C 
HETATM   15  C28 UNL     1      -2.965  49.866 -23.805  1.00  0.00     0.032 C 
HETATM   16  C29 UNL     1      -2.287  49.991 -25.163  1.00  0.00     0.131 C 
HETATM   17  O7  UNL     1      -1.641  51.244 -24.940  1.00  0.00    -0.347 OA
HETATM   18  C30 UNL     1      -3.185  50.093 -26.400  1.00  0.00     0.042 C 
HETATM   19  C31 UNL     1      -3.795  48.748 -26.796  1.00  0.00     0.015 C 
HETATM   20  C32 UNL     1      -2.365  50.677 -27.573  1.00  0.00     0.158 C 
HETATM   21  C33 UNL     1      -1.650  51.984 -27.183  1.00  0.00     0.209 C 
ENDROOT
BRANCH  12  22
HETATM   22  C11 UNL     1      -5.663  50.484 -21.482  1.00  0.00     0.064 C 
BRANCH  22  23
HETATM   23  C12 UNL     1      -6.749  49.493 -21.919  1.00  0.00     0.124 C 
BRANCH  23  24
HETATM   24  O5  UNL     1      -7.673  50.240 -22.728  1.00  0.00    -0.395 OA
HETATM   25  H18 UNL     1      -8.312  49.608 -23.103  1.00  0.00     0.210 HD
ENDBRANCH  23  24
BRANCH  23  26
HETATM   26  C13 UNL     1      -7.541  48.854 -20.763  1.00  0.00     0.059 C 
BRANCH  26  27
HETATM   27  C14 UNL     1      -8.770  48.094 -21.175  1.00  0.00    -0.024 C 
HETATM   28  C15 UNL     1      -9.667  47.490 -20.379  1.00  0.00    -0.004 C 
BRANCH  28  29
HETATM   29  C16 UNL     1      -9.639  47.474 -18.933  1.00  0.00     0.002 C 
HETATM   30  C17 UNL     1     -10.702  47.547 -18.106  1.00  0.00    -0.080 C 
HETATM   31  C18 UNL     1     -10.500  47.495 -16.610  1.00  0.00     0.043 C 
BRANCH  30  32
HETATM   32  C19 UNL     1     -12.147  47.704 -18.533  1.00  0.00     0.060 C 
BRANCH  32  33
HETATM   33  C20 UNL     1     -13.079  46.983 -17.599  1.00  0.00    -0.022 C 
HETATM   34  C21 UNL     1     -14.396  47.171 -17.410  1.00  0.00    -0.004 C 
BRANCH  34  35
HETATM   35  C22 UNL     1     -15.226  48.150 -18.073  1.00  0.00    -0.004 C 
HETATM   36  C23 UNL     1     -16.287  47.899 -18.856  1.00  0.00    -0.025 C 
BRANCH  36  37
HETATM   37  C24 UNL     1     -16.883  46.573 -19.248  1.00  0.00     0.053 C 
BRANCH  37  38
HETATM   38  C25 UNL     1     -18.232  46.743 -19.952  1.00  0.00     0.168 C 
BRANCH  38  39
HETATM   39  O6  UNL     1     -19.007  47.771 -19.342  1.00  0.00    -0.401 OA
HETATM   40  H37 UNL     1     -18.485  48.591 -19.375  1.00  0.00     0.209 HD
ENDBRANCH  38  39
ENDBRANCH  37  38
ENDBRANCH  36  37
ENDBRANCH  34  35
ENDBRANCH  32  33
ENDBRANCH  30  32
ENDBRANCH  28  29
ENDBRANCH  26  27
ENDBRANCH  23  26
ENDBRANCH  22  23
ENDBRANCH  12  22
BRANCH   1  41
HETATM   41  O1  UNL     1       0.306  50.819 -26.091  1.00  0.00    -0.358 OA
HETATM   42  C1  UNL     1       1.487  51.319 -26.696  1.00  0.00     0.205 C 
ENDBRANCH   1  41
BRANCH  20  43
HETATM   43  O8  UNL     1      -3.210  50.953 -28.703  1.00  0.00    -0.392 OA
HETATM   44  H50 UNL     1      -3.992  51.436 -28.381  1.00  0.00     0.210 HD
ENDBRANCH  20  43
BRANCH  21  45
HETATM   45  O9  UNL     1      -0.945  52.512 -28.314  1.00  0.00    -0.387 OA
HETATM   46  H52 UNL     1      -1.504  52.295 -29.088  1.00  0.00     0.210 HD
ENDBRANCH  21  45
TORSDOF 15
ENDMDL
