MODEL 1
REMARK minimizedAffinity -8.65229797
REMARK  8 active torsions:
REMARK  status: ('A' for Active; 'I' for Inactive)
REMARK    1  A    between atoms: C4_4  and  C5_5 
REMARK    2  A    between atoms: C5_5  and  C6_6 
REMARK    3  A    between atoms: C6_6  and  C7_7 
REMARK    4  A    between atoms: C9_9  and  C10_10 
REMARK    5  A    between atoms: C11_11  and  C12_12 
REMARK    6  A    between atoms: C14_14  and  C15_15 
REMARK    7  A    between atoms: C24_25  and  C26_27 
REMARK    8  A    between atoms: C29_31  and  O3_33 
ROOT
HETATM    1  C15 UNL     1      -3.122   9.158  16.201  1.00  0.00     0.149 C 
HETATM    2  C16 UNL     1      -3.178   7.649  15.989  1.00  0.00     0.054 C 
HETATM    3  C17 UNL     1      -4.136   7.439  14.792  1.00  0.00     0.050 C 
HETATM    4  C18 UNL     1      -4.126   8.863  14.157  1.00  0.00     0.272 C 
HETATM    5  O1  UNL     1      -3.896   8.882  12.759  1.00  0.00    -0.360 OA
HETATM    6  C19 UNL     1      -2.533   8.942  12.374  1.00  0.00     0.171 C 
HETATM    7  C20 UNL     1      -1.687   7.826  12.960  1.00  0.00     0.027 C 
HETATM    8  C21 UNL     1      -2.398   6.480  12.950  1.00  0.00     0.012 C 
HETATM    9  C22 UNL     1      -3.640   6.263  13.865  1.00  0.00     0.032 C 
HETATM   10  C23 UNL     1      -4.768   5.572  13.049  1.00  0.00    -0.066 C 
HETATM   11  C24 UNL     1      -4.676   4.280  12.631  1.00  0.00    -0.021 C 
HETATM   12  C25 UNL     1      -3.527   3.343  12.916  1.00  0.00     0.052 C 
HETATM   13  C27 UNL     1      -5.956   6.477  12.805  1.00  0.00     0.038 C 
HETATM   14  C28 UNL     1      -6.571   7.010  14.103  1.00  0.00     0.042 C 
HETATM   15  C29 UNL     1      -5.590   7.087  15.294  1.00  0.00     0.067 C 
HETATM   16  C30 UNL     1      -5.684   5.782  16.120  1.00  0.00     0.047 C 
HETATM   17  O4  UNL     1      -3.211   9.689  14.883  1.00  0.00    -0.351 OA
ENDROOT
BRANCH   1  18
HETATM   18  C14 UNL     1      -1.859   9.580  16.906  1.00  0.00     0.011 C 
HETATM   19  C12 UNL     1      -1.686  10.423  17.948  1.00  0.00    -0.063 C 
HETATM   20  C13 UNL     1      -2.823  11.061  18.706  1.00  0.00     0.048 C 
BRANCH  19  21
HETATM   21  C11 UNL     1      -0.318  10.708  18.391  1.00  0.00     0.006 C 
HETATM   22  C10 UNL     1       0.104  10.834  19.661  1.00  0.00     0.001 C 
BRANCH  22  23
HETATM   23  C9  UNL     1       1.484  11.127  19.994  1.00  0.00     0.002 C 
HETATM   24  C7  UNL     1       2.257  10.500  20.905  1.00  0.00    -0.084 C 
HETATM   25  C8  UNL     1       1.829   9.352  21.783  1.00  0.00     0.043 C 
BRANCH  24  26
HETATM   26  C6  UNL     1       3.685  10.973  21.128  1.00  0.00     0.037 C 
BRANCH  26  27
HETATM   27  C5  UNL     1       3.985  11.287  22.598  1.00  0.00     0.031 C 
BRANCH  27  28
HETATM   28  C4  UNL     1       5.466  11.319  22.865  1.00  0.00    -0.024 C 
HETATM   29  C2  UNL     1       6.255  12.406  22.983  1.00  0.00    -0.091 C 
HETATM   30  C1  UNL     1       5.773  13.829  22.928  1.00  0.00     0.042 C 
HETATM   31  C3  UNL     1       7.739  12.258  23.200  1.00  0.00     0.042 C 
ENDBRANCH  27  28
ENDBRANCH  26  27
ENDBRANCH  24  26
ENDBRANCH  22  23
ENDBRANCH  19  21
ENDBRANCH   1  18
BRANCH  15  32
HETATM   32  O3  UNL     1      -6.053   8.122  16.176  1.00  0.00    -0.389 OA
HETATM   33  H44 UNL     1      -6.952   7.895  16.472  1.00  0.00     0.210 HD
ENDBRANCH  15  32
BRANCH  11  34
HETATM   34  C26 UNL     1      -5.739   3.618  11.801  1.00  0.00     0.265 C 
HETATM   35  O2  UNL     1      -5.479   2.838  10.890  1.00  0.00    -0.302 OA
ENDBRANCH  11  34
TORSDOF 8
ENDMDL
