MODEL 1
REMARK minimizedAffinity -8.93769169
REMARK  6 active torsions:
REMARK  status: ('A' for Active; 'I' for Inactive)
REMARK    1  A    between atoms: C2_2  and  C3_3 
REMARK    2  A    between atoms: C4_5  and  C5_6 
REMARK    3  A    between atoms: C5_6  and  C6_7 
REMARK    4  A    between atoms: C6_7  and  C7_8 
REMARK    5  A    between atoms: C7_8  and  C9_10 
REMARK    6  A    between atoms: C30_32  and  O3_33 
ROOT
HETATM    1  C9  UNL     1       1.228   6.892  13.063  1.00  0.00    -0.002 C 
HETATM    2  C10 UNL     1       0.421   8.002  13.794  1.00  0.00     0.007 C 
HETATM    3  C11 UNL     1      -1.045   7.536  13.871  1.00  0.00     0.015 C 
HETATM    4  C12 UNL     1      -1.007   6.037  13.523  1.00  0.00    -0.010 C 
HETATM    5  C13 UNL     1      -0.612   5.273  14.828  1.00  0.00     0.021 C 
HETATM    6  C14 UNL     1      -2.278   5.357  13.010  1.00  0.00    -0.039 C 
HETATM    7  C15 UNL     1      -2.173   4.261  12.210  1.00  0.00    -0.066 C 
HETATM    8  C16 UNL     1      -0.803   3.742  11.749  1.00  0.00     0.036 C 
HETATM    9  C17 UNL     1       0.450   4.567  12.114  1.00  0.00     0.015 C 
HETATM   10  C18 UNL     1       0.105   6.032  12.403  1.00  0.00    -0.029 C 
HETATM   11  C19 UNL     1      -0.355   6.708  11.075  1.00  0.00     0.016 C 
HETATM   12  C20 UNL     1      -3.417   3.480  11.701  1.00  0.00    -0.015 C 
HETATM   13  C21 UNL     1      -3.589   3.825  10.202  1.00  0.00     0.020 C 
HETATM   14  C22 UNL     1      -3.196   1.955  11.865  1.00  0.00     0.021 C 
HETATM   15  C23 UNL     1      -4.433   1.076  11.716  1.00  0.00     0.080 C 
HETATM   16  C24 UNL     1      -5.710   1.810  11.383  1.00  0.00     0.135 C 
HETATM   17  O2  UNL     1      -6.527   1.294  10.615  1.00  0.00    -0.297 OA
HETATM   18  C25 UNL     1      -6.007   3.136  12.092  1.00  0.00     0.018 C 
HETATM   19  C26 UNL     1      -6.867   4.007  11.151  1.00  0.00     0.023 C 
HETATM   20  C27 UNL     1      -6.868   2.792  13.323  1.00  0.00     0.023 C 
HETATM   21  C28 UNL     1      -4.682   3.831  12.556  1.00  0.00     0.016 C 
HETATM   22  C29 UNL     1      -4.815   5.351  12.732  1.00  0.00     0.043 C 
HETATM   23  C30 UNL     1      -3.601   5.934  13.453  1.00  0.00     0.148 C 
ENDROOT
BRANCH   1  24
HETATM   24  C7  UNL     1       2.371   7.476  12.181  1.00  0.00    -0.014 C 
HETATM   25  C8  UNL     1       2.030   8.853  11.604  1.00  0.00     0.010 C 
BRANCH  24  26
HETATM   26  C6  UNL     1       2.795   6.524  11.030  1.00  0.00     0.008 C 
BRANCH  26  27
HETATM   27  C5  UNL     1       2.691   7.109   9.616  1.00  0.00     0.028 C 
BRANCH  27  28
HETATM   28  C4  UNL     1       2.973   6.052   8.583  1.00  0.00    -0.017 C 
HETATM   29  C2  UNL     1       2.616   6.051   7.284  1.00  0.00    -0.028 C 
HETATM   30  C1  UNL     1       1.854   7.108   6.547  1.00  0.00     0.051 C 
BRANCH  29  31
HETATM   31  C3  UNL     1       3.025   4.877   6.451  1.00  0.00     0.265 C 
HETATM   32  O1  UNL     1       3.469   3.830   6.910  1.00  0.00    -0.302 OA
ENDBRANCH  29  31
ENDBRANCH  27  28
ENDBRANCH  26  27
ENDBRANCH  24  26
ENDBRANCH   1  24
BRANCH  23  33
HETATM   33  O3  UNL     1      -3.741   5.690  14.850  1.00  0.00    -0.391 OA
HETATM   34  H46 UNL     1      -4.532   6.167  15.150  1.00  0.00     0.210 HD
ENDBRANCH  23  33
TORSDOF 6
ENDMDL
