MODEL 1
REMARK minimizedAffinity -8.33664417
REMARK CNNscore 0.723912179
REMARK CNNaffinity 7.07603025
REMARK  9 active torsions:
REMARK  status: ('A' for Active; 'I' for Inactive)
REMARK    1  A    between atoms: C2_2  and  C3_3 
REMARK    2  A    between atoms: C3_3  and  C5_5 
REMARK    3  A    between atoms: C5_5  and  C6_6 
REMARK    4  A    between atoms: C6_6  and  O2_8 
REMARK    5  A    between atoms: O2_8  and  C7_9 
REMARK    6  A    between atoms: C7_9  and  C8_10 
REMARK    7  A    between atoms: C20_22  and  O3_23 
REMARK    8  A    between atoms: C20_22  and  C21_24 
REMARK    9  A    between atoms: C21_24  and  O4_25 
ROOT
HETATM    1  C8  UNL     1      -2.010   7.798  13.237  1.00  0.00    -0.018 C 
HETATM    2  C9  UNL     1      -2.374   8.790  12.093  1.00  0.00     0.018 C 
HETATM    3  C10 UNL     1      -1.805   8.642  14.520  1.00  0.00     0.012 C 
HETATM    4  C11 UNL     1      -3.077   9.178  15.171  1.00  0.00     0.002 C 
HETATM    5  C12 UNL     1      -4.341   8.366  14.904  1.00  0.00     0.010 C 
HETATM    6  C13 UNL     1      -4.104   6.863  14.635  1.00  0.00    -0.032 C 
HETATM    7  C14 UNL     1      -3.382   6.246  15.874  1.00  0.00     0.016 C 
HETATM    8  C15 UNL     1      -3.190   6.739  13.365  1.00  0.00     0.005 C 
HETATM    9  C16 UNL     1      -2.800   5.254  13.139  1.00  0.00     0.007 C 
HETATM   10  C17 UNL     1      -3.965   4.269  13.342  1.00  0.00     0.006 C 
HETATM   11  C18 UNL     1      -5.308   4.984  13.240  1.00  0.00    -0.002 C 
HETATM   12  C19 UNL     1      -6.498   4.019  13.143  1.00  0.00     0.045 C 
HETATM   13  C20 UNL     1      -7.822   4.801  13.017  1.00  0.00     0.083 C 
HETATM   14  C22 UNL     1      -7.871   5.980  14.028  1.00  0.00     0.023 C 
HETATM   15  C23 UNL     1      -7.647   5.505  15.470  1.00  0.00     0.008 C 
HETATM   16  C24 UNL     1      -6.125   5.509  15.664  1.00  0.00     0.011 C 
HETATM   17  C25 UNL     1      -5.491   6.089  14.360  1.00  0.00    -0.029 C 
HETATM   18  C26 UNL     1      -6.684   6.948  13.861  1.00  0.00     0.018 C 
ENDROOT
BRANCH   1  19
HETATM   19  C7  UNL     1      -0.650   7.144  12.856  1.00  0.00     0.188 C 
BRANCH  19  20
HETATM   20  O2  UNL     1      -0.811   6.282  11.717  1.00  0.00    -0.321 OA
BRANCH  20  21
HETATM   21  C6  UNL     1       0.314   6.110  10.972  1.00  0.00     0.259 C 
HETATM   22  O1  UNL     1       0.845   5.032  10.737  1.00  0.00    -0.265 OA
BRANCH  21  23
HETATM   23  C5  UNL     1       0.862   7.436  10.505  1.00  0.00     0.115 C 
BRANCH  23  24
HETATM   24  C3  UNL     1       0.581   7.741   9.024  1.00  0.00    -0.010 C 
HETATM   25  C4  UNL     1      -0.468   8.852   8.916  1.00  0.00     0.010 C 
BRANCH  24  26
HETATM   26  C2  UNL     1       1.846   8.076   8.206  1.00  0.00     0.000 C 
HETATM   27  C1  UNL     1       1.981   7.342   6.880  1.00  0.00     0.005 C 
ENDBRANCH  24  26
ENDBRANCH  23  24
ENDBRANCH  21  23
ENDBRANCH  20  21
ENDBRANCH  19  20
ENDBRANCH   1  19
BRANCH  13  28
HETATM   28  O3  UNL     1      -8.927   3.913  13.280  1.00  0.00    -0.387 OA
HETATM   29  H34 UNL     1      -8.730   3.402  14.082  1.00  0.00     0.210 HD
ENDBRANCH  13  28
BRANCH  13  30
HETATM   30  C21 UNL     1      -8.044   5.279  11.561  1.00  0.00     0.202 C 
BRANCH  30  31
HETATM   31  O4  UNL     1      -9.228   6.074  11.482  1.00  0.00    -0.398 OA
HETATM   32  H37 UNL     1      -9.890   5.574  12.003  1.00  0.00     0.209 HD
ENDBRANCH  30  31
ENDBRANCH  13  30
TORSDOF 9
ENDMDL
