MODEL 1
REMARK minimizedAffinity -11.8060017
REMARK CNNscore 0.50319463
REMARK CNNaffinity 7.5939889
REMARK  12 active torsions:
REMARK  status: ('A' for Active; 'I' for Inactive)
REMARK    1  A    between atoms: C2_2  and  C3_3 
REMARK    2  A    between atoms: C4_4  and  C18_19 
REMARK    3  A    between atoms: C19_20  and  O1_21 
REMARK    4  A    between atoms: N2_22  and  C20_23 
REMARK    5  A    between atoms: C20_23  and  C21_24 
REMARK    6  A    between atoms: C21_24  and  O3_26 
REMARK    7  A    between atoms: O3_26  and  C22_27 
REMARK    8  A    between atoms: C25_30  and  C26_31 
REMARK    9  A    between atoms: C32_38  and  C33_39 
REMARK   10  A    between atoms: C39_47  and  O7_48 
REMARK   11  A    between atoms: C43_52  and  O8_53 
REMARK   12  A    between atoms: C45_55  and  O9_56 
ROOT
HETATM    1  C22 UNL     1      -3.402  48.870 -26.132  1.00  0.00     0.135 C 
HETATM    2  C23 UNL     1      -2.411  50.023 -26.253  1.00  0.00     0.034 C 
HETATM    3  C24 UNL     1      -1.730  50.300 -24.925  1.00  0.00     0.022 C 
HETATM    4  C25 UNL     1      -2.731  50.846 -23.863  1.00  0.00     0.048 C 
HETATM    5  C27 UNL     1      -2.146  50.663 -22.415  1.00  0.00     0.011 C 
HETATM    6  C28 UNL     1      -0.680  51.110 -22.232  1.00  0.00     0.007 C 
HETATM    7  C29 UNL     1      -0.432  51.999 -21.019  1.00  0.00     0.013 C 
HETATM    8  C30 UNL     1      -1.060  51.512 -19.681  1.00  0.00    -0.005 C 
HETATM    9  C31 UNL     1      -0.926  52.711 -18.711  1.00  0.00     0.019 C 
HETATM   10  C32 UNL     1      -0.297  50.226 -19.174  1.00  0.00     0.028 C 
HETATM   11  C37 UNL     1      -1.218  49.053 -19.537  1.00  0.00     0.013 C 
HETATM   12  C38 UNL     1      -2.626  49.601 -19.415  1.00  0.00     0.040 C 
HETATM   13  C39 UNL     1      -2.563  51.065 -19.887  1.00  0.00     0.070 C 
HETATM   14  C40 UNL     1      -3.072  51.292 -21.346  1.00  0.00     0.026 C 
HETATM   15  C41 UNL     1      -4.557  50.916 -21.566  1.00  0.00     0.011 C 
HETATM   16  C42 UNL     1      -4.753  49.794 -22.580  1.00  0.00     0.039 C 
HETATM   17  C43 UNL     1      -4.127  50.102 -23.966  1.00  0.00     0.074 C 
HETATM   18  C44 UNL     1      -4.018  48.758 -24.729  1.00  0.00     0.071 C 
ENDROOT
BRANCH   1  19
HETATM   19  O3  UNL     1      -4.410  49.083 -27.145  1.00  0.00    -0.315 OA
BRANCH  19  20
HETATM   20  C21 UNL     1      -4.542  48.108 -28.082  1.00  0.00     0.285 C 
HETATM   21  O2  UNL     1      -3.636  47.683 -28.786  1.00  0.00    -0.263 OA
BRANCH  20  22
HETATM   22  C20 UNL     1      -5.974  47.599 -28.132  1.00  0.00     0.352 C 
BRANCH  22  23
HETATM   23  N2  UNL     1      -6.644  47.464 -29.560  1.00  0.00    -0.021 N 
HETATM   24  C6  UNL     1      -7.967  48.312 -29.547  1.00  0.00     0.214 C 
HETATM   25  C5  UNL     1      -8.349  48.587 -31.015  1.00  0.00     0.041 C 
HETATM   26  C7  UNL     1      -9.141  47.552 -28.856  1.00  0.00     0.109 C 
HETATM   27  C4  UNL     1      -7.726  47.508 -31.909  1.00  0.00     0.004 C 
HETATM   28  C3  UNL     1      -6.226  47.875 -32.016  1.00  0.00     0.047 C 
HETATM   29  C45 UNL     1      -5.650  48.024 -30.578  1.00  0.00     0.329 C 
HETATM   30  N1  UNL     1      -9.155  47.601 -27.368  1.00  0.00    -0.279 NA
HETATM   31  C15 UNL     1      -9.186  46.030 -29.214  1.00  0.00     0.035 C 
HETATM   32  C8  UNL     1      -9.527  48.859 -26.720  1.00  0.00     0.117 C 
HETATM   33  C9  UNL     1     -10.078  46.525 -27.099  1.00  0.00     0.018 A 
HETATM   34  C10 UNL     1     -10.817  46.312 -25.948  1.00  0.00     0.024 A 
HETATM   35  C14 UNL     1     -10.172  45.616 -28.178  1.00  0.00    -0.024 A 
HETATM   36  C11 UNL     1     -11.686  45.214 -25.903  1.00  0.00     0.002 A 
HETATM   37  C12 UNL     1     -11.798  44.339 -26.993  1.00  0.00     0.001 A 
HETATM   38  C13 UNL     1     -11.027  44.527 -28.141  1.00  0.00     0.010 A 
HETATM   39  C16 UNL     1      -7.845  45.341 -28.947  1.00  0.00     0.053 C 
HETATM   40  C19 UNL     1      -9.337  45.821 -30.729  1.00  0.00     0.139 C 
HETATM   41  C17 UNL     1      -6.985  46.013 -29.987  1.00  0.00     0.203 C 
HETATM   42  C18 UNL     1      -7.897  46.114 -31.257  1.00  0.00     0.051 C 
BRANCH  28  43
HETATM   43  C2  UNL     1      -5.384  46.900 -32.862  1.00  0.00     0.005 C 
HETATM   44  C1  UNL     1      -4.056  47.489 -33.321  1.00  0.00     0.005 C 
ENDBRANCH  28  43
BRANCH  29  45
HETATM   45  O9  UNL     1      -5.374  49.383 -30.312  1.00  0.00    -0.369 OA
HETATM   46  H59 UNL     1      -4.657  49.664 -30.912  1.00  0.00     0.212 HD
ENDBRANCH  29  45
BRANCH  40  47
HETATM   47  O1  UNL     1      -9.617  44.455 -31.020  1.00  0.00    -0.394 OA
HETATM   48  H24 UNL     1     -10.014  44.398 -31.911  1.00  0.00     0.210 HD
ENDBRANCH  40  47
ENDBRANCH  22  23
ENDBRANCH  20  22
ENDBRANCH  19  20
ENDBRANCH   1  19
BRANCH  17  49
HETATM   49  O8  UNL     1      -5.074  50.879 -24.726  1.00  0.00    -0.389 OA
HETATM   50  H55 UNL     1      -5.714  51.284 -24.107  1.00  0.00     0.210 HD
ENDBRANCH  17  49
BRANCH   4  51
HETATM   51  C26 UNL     1      -2.898  52.357 -24.116  1.00  0.00     0.244 C 
HETATM   52  O4  UNL     1      -2.077  53.060 -24.695  1.00  0.00    -0.306 OA
ENDBRANCH   4  51
BRANCH  13  53
HETATM   53  O7  UNL     1      -3.421  51.846 -19.044  1.00  0.00    -0.389 OA
HETATM   54  H49 UNL     1      -4.170  51.307 -18.741  1.00  0.00     0.210 HD
ENDBRANCH  13  53
BRANCH  10  55
HETATM   55  C33 UNL     1       0.127  50.209 -17.726  1.00  0.00    -0.045 A 
HETATM   56  C34 UNL     1       0.920  51.051 -17.060  1.00  0.00     0.087 A 
HETATM   57  C35 UNL     1       0.993  50.582 -15.678  1.00  0.00     0.283 A 
HETATM   58  O5  UNL     1       1.652  51.117 -14.805  1.00  0.00    -0.260 OA
HETATM   59  O6  UNL     1       0.209  49.483 -15.538  1.00  0.00    -0.314 OA
HETATM   60  C36 UNL     1      -0.397  49.178 -16.795  1.00  0.00     0.213 A 
ENDBRANCH  10  55
TORSDOF 12
ENDMDL
