MODEL 1
REMARK minimizedAffinity -9.59623909
REMARK  4 active torsions:
REMARK  status: ('A' for Active; 'I' for Inactive)
REMARK    1  A    between atoms: C4_4  and  C5_5 
REMARK    2  A    between atoms: C5_5  and  C6_6 
REMARK    3  A    between atoms: C6_6  and  C7_7 
REMARK    4  A    between atoms: C7_7  and  C9_9 
ROOT
HETATM    1  C9  UNL     1      -0.486  52.399 -21.899  1.00  0.00    -0.002 C 
HETATM    2  C10 UNL     1       0.936  53.007 -21.966  1.00  0.00     0.007 C 
HETATM    3  C11 UNL     1       1.495  52.982 -20.524  1.00  0.00     0.015 C 
HETATM    4  C12 UNL     1       0.267  52.701 -19.625  1.00  0.00    -0.013 C 
HETATM    5  C13 UNL     1      -0.435  54.081 -19.406  1.00  0.00     0.021 C 
HETATM    6  C14 UNL     1       0.457  52.130 -18.223  1.00  0.00    -0.070 C 
HETATM    7  C15 UNL     1       1.637  52.178 -17.583  1.00  0.00    -0.022 C 
HETATM    8  C16 UNL     1       1.833  51.821 -16.143  1.00  0.00     0.035 C 
HETATM    9  C17 UNL     1       0.510  51.668 -15.345  1.00  0.00     0.032 C 
HETATM   10  C18 UNL     1       0.765  51.303 -13.825  1.00  0.00     0.068 C 
HETATM   11  C19 UNL     1       2.141  51.739 -13.276  1.00  0.00     0.047 C 
HETATM   12  C20 UNL     1      -0.270  52.025 -12.930  1.00  0.00     0.047 C 
HETATM   13  O1  UNL     1       0.572  49.901 -13.559  1.00  0.00    -0.310 OA
HETATM   14  C21 UNL     1       1.267  49.052 -14.353  1.00  0.00     0.259 C 
HETATM   15  O2  UNL     1       2.471  48.863 -14.295  1.00  0.00    -0.265 OA
HETATM   16  C22 UNL     1       0.339  48.423 -15.342  1.00  0.00     0.112 C 
HETATM   17  C23 UNL     1       0.060  49.358 -16.516  1.00  0.00     0.020 C 
HETATM   18  C24 UNL     1      -0.516  50.781 -16.186  1.00  0.00    -0.029 C 
HETATM   19  C25 UNL     1      -1.866  50.606 -15.452  1.00  0.00     0.016 C 
HETATM   20  C26 UNL     1      -0.813  51.602 -17.536  1.00  0.00     0.024 C 
HETATM   21  C27 UNL     1      -1.808  50.880 -18.502  1.00  0.00     0.010 C 
HETATM   22  C28 UNL     1      -1.903  51.445 -19.929  1.00  0.00     0.011 C 
HETATM   23  C29 UNL     1      -0.506  51.670 -20.524  1.00  0.00    -0.029 C 
HETATM   24  C30 UNL     1       0.231  50.301 -20.592  1.00  0.00     0.016 C 
ENDROOT
BRANCH   1  25
HETATM   25  C7  UNL     1      -1.058  51.747 -23.188  1.00  0.00    -0.014 C 
HETATM   26  C8  UNL     1      -1.993  50.585 -22.805  1.00  0.00     0.010 C 
BRANCH  25  27
HETATM   27  C6  UNL     1      -1.670  52.599 -24.324  1.00  0.00     0.008 C 
BRANCH  27  28
HETATM   28  C5  UNL     1      -0.851  52.955 -25.572  1.00  0.00     0.028 C 
BRANCH  28  29
HETATM   29  C4  UNL     1       0.535  52.374 -25.594  1.00  0.00    -0.025 C 
HETATM   30  C2  UNL     1       1.184  51.808 -26.631  1.00  0.00    -0.091 C 
HETATM   31  C1  UNL     1       0.645  51.671 -28.028  1.00  0.00     0.042 C 
HETATM   32  C3  UNL     1       2.575  51.255 -26.452  1.00  0.00     0.042 C 
ENDBRANCH  28  29
ENDBRANCH  27  28
ENDBRANCH  25  27
ENDBRANCH   1  25
TORSDOF 4
ENDMDL
