MODEL 1
REMARK minimizedAffinity -8.87437344
REMARK  6 active torsions:
REMARK  status: ('A' for Active; 'I' for Inactive)
REMARK    1  A    between atoms: S1_2  and  C2_5 
REMARK    2  A    between atoms: N1_13  and  C9_14 
REMARK    3  A    between atoms: C9_14  and  C10_15 
REMARK    4  A    between atoms: C17_23  and  C18_24 
REMARK    5  A    between atoms: C18_24  and  C19_25 
REMARK    6  A    between atoms: C19_25  and  O4_27 
ROOT
HETATM    1  C2  UNL     1      -3.391  49.135 -23.902  1.00  0.00     0.089 A 
HETATM    2  C3  UNL     1      -3.689  48.461 -25.101  1.00  0.00     0.068 A 
HETATM    3  C4  UNL     1      -3.037  48.780 -26.281  1.00  0.00     0.118 A 
HETATM    4  F1  UNL     1      -3.344  48.104 -27.395  1.00  0.00    -0.206 F 
HETATM    5  C5  UNL     1      -2.052  49.753 -26.328  1.00  0.00     0.056 A 
HETATM    6  C6  UNL     1      -1.745  50.465 -25.156  1.00  0.00     0.003 A 
HETATM    7  C7  UNL     1      -0.794  51.447 -24.856  1.00  0.00    -0.022 C 
HETATM    8  C8  UNL     1      -0.925  51.785 -23.542  1.00  0.00     0.024 C 
HETATM    9  N1  UNL     1      -2.028  51.168 -23.026  1.00  0.00    -0.343 N 
HETATM   10  C16 UNL     1      -2.452  50.202 -23.956  1.00  0.00     0.068 A 
HETATM   11  C17 UNL     1       0.043  52.819 -23.075  1.00  0.00     0.046 C 
HETATM   12  C20 UNL     1       1.021  52.861 -24.317  1.00  0.00     0.016 C 
HETATM   13  C21 UNL     1       0.277  52.208 -25.525  1.00  0.00     0.042 C 
ENDROOT
BRANCH   9  14
HETATM   14  C9  UNL     1      -2.699  51.537 -21.776  1.00  0.00     0.167 C 
BRANCH  14  15
HETATM   15  C10 UNL     1      -1.939  51.134 -20.527  1.00  0.00    -0.040 A 
HETATM   16  C11 UNL     1      -2.137  51.811 -19.312  1.00  0.00     0.010 A 
HETATM   17  C12 UNL     1      -1.445  51.423 -18.162  1.00  0.00     0.024 A 
HETATM   18  C13 UNL     1      -0.564  50.347 -18.216  1.00  0.00     0.034 A 
HETATM   19 CL1  UNL     1       0.289  49.868 -16.800  1.00  0.00    -0.084 Cl
HETATM   20  C14 UNL     1      -0.372  49.651 -19.407  1.00  0.00     0.024 A 
HETATM   21  C15 UNL     1      -1.062  50.038 -20.557  1.00  0.00     0.010 A 
ENDBRANCH  14  15
ENDBRANCH   9  14
BRANCH  11  22
HETATM   22  C18 UNL     1       0.773  52.441 -21.790  1.00  0.00     0.120 C 
BRANCH  22  23
HETATM   23  C19 UNL     1       1.210  53.659 -21.026  1.00  0.00     0.140 C 
HETATM   24  O3  UNL     1       1.742  54.664 -21.464  1.00  0.00    -0.650 OA
BRANCH  23  25
HETATM   25  O4  UNL     1       0.967  53.538 -19.705  1.00  0.00    -0.776 OA
HETATM   26  H15 UNL     1       1.305  54.375 -19.323  1.00  0.00     0.167 HD
ENDBRANCH  23  25
ENDBRANCH  22  23
ENDBRANCH  11  22
BRANCH   1  27
HETATM   27  S1  UNL     1      -4.154  48.523 -22.408  1.00  0.00     0.174 S 
HETATM   28  C1  UNL     1      -5.103  49.849 -21.715  1.00  0.00     0.167 C 
HETATM   29  O1  UNL     1      -3.074  48.207 -21.495  1.00  0.00    -0.223 OA
HETATM   30  O2  UNL     1      -5.113  47.511 -22.814  1.00  0.00    -0.223 OA
ENDBRANCH   1  27
TORSDOF 6
ENDMDL
