MODEL 1
REMARK minimizedAffinity -10.1954899
REMARK  5 active torsions:
REMARK  status: ('A' for Active; 'I' for Inactive)
REMARK    1  A    between atoms: C2_2  and  C4_4 
REMARK    2  A    between atoms: C7_7  and  C8_8 
REMARK    3  A    between atoms: C8_8  and  O2_10 
REMARK    4  A    between atoms: C11_13  and  C12_14 
REMARK    5  A    between atoms: C12_14  and  O4_16 
ROOT
HETATM    1  C4  UNL     1       0.949  53.071 -23.901  1.00  0.00     0.019 C 
HETATM    2  C5  UNL     1       0.485  53.992 -25.037  1.00  0.00     0.011 C 
HETATM    3  C6  UNL     1       0.454  53.132 -26.304  1.00  0.00     0.021 C 
HETATM    4  C7  UNL     1       0.729  51.676 -25.877  1.00  0.00     0.050 C 
HETATM    5  C9  UNL     1      -0.191  50.685 -26.609  1.00  0.00     0.022 C 
HETATM    6  C10 UNL     1      -1.680  50.662 -26.222  1.00  0.00     0.023 C 
HETATM    7  C11 UNL     1      -2.077  51.174 -24.785  1.00  0.00     0.057 C 
HETATM    8  C13 UNL     1      -0.795  50.926 -23.926  1.00  0.00     0.011 C 
HETATM    9  C14 UNL     1      -1.098  50.864 -22.447  1.00  0.00     0.007 C 
HETATM   10  C15 UNL     1      -1.981  49.657 -22.142  1.00  0.00     0.006 C 
HETATM   11  C16 UNL     1      -2.985  49.189 -23.256  1.00  0.00     0.003 C 
HETATM   12  C17 UNL     1      -4.187  48.353 -22.596  1.00  0.00    -0.035 C 
HETATM   13  C18 UNL     1      -4.923  47.559 -23.707  1.00  0.00     0.016 C 
HETATM   14  C19 UNL     1      -3.639  47.293 -21.587  1.00  0.00     0.017 C 
HETATM   15  C20 UNL     1      -4.723  46.562 -20.802  1.00  0.00     0.080 C 
HETATM   16  C21 UNL     1      -5.666  47.526 -20.118  1.00  0.00     0.135 C 
HETATM   17  O5  UNL     1      -5.995  47.329 -18.946  1.00  0.00    -0.297 OA
HETATM   18  C22 UNL     1      -6.266  48.670 -20.960  1.00  0.00     0.017 C 
HETATM   19  C23 UNL     1      -7.432  48.105 -21.781  1.00  0.00     0.023 C 
HETATM   20  C24 UNL     1      -6.867  49.710 -19.980  1.00  0.00     0.023 C 
HETATM   21  C25 UNL     1      -5.111  49.335 -21.790  1.00  0.00     0.009 C 
HETATM   22  C26 UNL     1      -5.545  50.542 -22.643  1.00  0.00     0.007 C 
HETATM   23  C27 UNL     1      -4.359  51.282 -23.297  1.00  0.00     0.011 C 
HETATM   24  C28 UNL     1      -3.421  50.396 -24.185  1.00  0.00    -0.022 C 
HETATM   25  C29 UNL     1      -4.292  49.982 -25.410  1.00  0.00     0.017 C 
HETATM   26  C30 UNL     1       0.538  51.634 -24.336  1.00  0.00     0.018 C 
ENDROOT
BRANCH   4  27
HETATM   27  C8  UNL     1       2.176  51.278 -26.226  1.00  0.00     0.149 C 
HETATM   28  O1  UNL     1       2.778  50.292 -25.819  1.00  0.00    -0.649 OA
BRANCH  27  29
HETATM   29  O2  UNL     1       2.813  52.145 -27.040  1.00  0.00    -0.776 OA
HETATM   30  H11 UNL     1       3.703  51.747 -27.149  1.00  0.00     0.167 HD
ENDBRANCH  27  29
ENDBRANCH   4  27
BRANCH   1  31
HETATM   31  C2  UNL     1       0.759  53.512 -22.463  1.00  0.00    -0.088 C 
HETATM   32  C1  UNL     1       1.449  54.494 -21.857  1.00  0.00     0.014 C 
HETATM   33  C3  UNL     1      -0.198  52.673 -21.649  1.00  0.00     0.043 C 
ENDBRANCH   1  31
BRANCH   7  34
HETATM   34  C12 UNL     1      -2.475  52.646 -24.927  1.00  0.00     0.149 C 
HETATM   35  O3  UNL     1      -2.396  53.510 -24.068  1.00  0.00    -0.649 OA
BRANCH  34  36
HETATM   36  O4  UNL     1      -2.860  53.002 -26.161  1.00  0.00    -0.776 OA
HETATM   37  H16 UNL     1      -3.003  53.969 -26.093  1.00  0.00     0.167 HD
ENDBRANCH  34  36
ENDBRANCH   7  34
TORSDOF 5
ENDMDL
