MODEL 1
REMARK minimizedAffinity -9.8660326
REMARK CNNscore 0.780357361
REMARK CNNaffinity 7.60906792
REMARK  5 active torsions:
REMARK  status: ('A' for Active; 'I' for Inactive)
REMARK    1  A    between atoms: C2_2  and  C3_3 
REMARK    2  A    between atoms: C2_2  and  C25_27 
REMARK    3  A    between atoms: C3_3  and  C4_4 
REMARK    4  A    between atoms: C4_4  and  C5_5 
REMARK    5  A    between atoms: C15_15  and  O1_16 
ROOT
HETATM    1  C5  UNL     1      -0.868   6.871  11.895  1.00  0.00    -0.023 C 
HETATM    2  C6  UNL     1      -1.874   6.140  12.404  1.00  0.00    -0.075 C 
HETATM    3  C7  UNL     1      -2.132   4.672  12.111  1.00  0.00     0.035 C 
HETATM    4  C8  UNL     1      -3.487   4.371  12.767  1.00  0.00     0.013 C 
HETATM    5  C9  UNL     1      -4.131   5.751  12.854  1.00  0.00     0.033 C 
HETATM    6  C10 UNL     1      -5.435   5.918  13.635  1.00  0.00     0.070 C 
HETATM    7  C11 UNL     1      -6.557   5.040  13.022  1.00  0.00     0.039 C 
HETATM    8  C12 UNL     1      -7.876   5.139  13.793  1.00  0.00     0.009 C 
HETATM    9  C13 UNL     1      -8.175   6.591  14.180  1.00  0.00    -0.001 C 
HETATM   10  C14 UNL     1      -9.393   6.711  15.096  1.00  0.00     0.037 C 
HETATM   11  C15 UNL     1      -9.824   8.176  15.235  1.00  0.00     0.118 C 
HETATM   12  C16 UNL     1      -8.682   9.175  15.015  1.00  0.00     0.032 C 
HETATM   13  C17 UNL     1      -7.344   8.625  15.507  1.00  0.00     0.015 C 
HETATM   14  C18 UNL     1      -6.928   7.311  14.803  1.00  0.00    -0.009 C 
HETATM   15  C19 UNL     1      -6.168   6.395  15.791  1.00  0.00     0.179 C 
HETATM   16  O2  UNL     1      -5.317   5.529  15.013  1.00  0.00    -0.379 OA
HETATM   17  C20 UNL     1      -5.872   7.403  13.679  1.00  0.00     0.032 C 
HETATM   18  C21 UNL     1      -4.716   8.398  13.946  1.00  0.00     0.009 C 
HETATM   19  C22 UNL     1      -3.441   8.112  13.138  1.00  0.00     0.014 C 
HETATM   20  C23 UNL     1      -2.975   6.658  13.324  1.00  0.00    -0.014 C 
HETATM   21  C24 UNL     1      -2.471   6.442  14.769  1.00  0.00     0.020 C 
ENDROOT
BRANCH   1  22
HETATM   22  C4  UNL     1       0.210   6.369  10.969  1.00  0.00     0.031 C 
BRANCH  22  23
HETATM   23  C3  UNL     1       1.125   7.511  10.514  1.00  0.00     0.037 C 
BRANCH  23  24
HETATM   24  C2  UNL     1       1.055   7.810   9.025  1.00  0.00    -0.086 C 
HETATM   25  C1  UNL     1      -0.046   8.391   8.512  1.00  0.00     0.014 C 
BRANCH  24  26
HETATM   26  C25 UNL     1       2.198   7.404   8.100  1.00  0.00     0.005 C 
HETATM   27  C26 UNL     1       2.920   6.146   8.591  1.00  0.00     0.014 C 
HETATM   28  C27 UNL     1       1.785   7.257   6.635  1.00  0.00     0.014 C 
ENDBRANCH  24  26
ENDBRANCH  23  24
ENDBRANCH  22  23
ENDBRANCH   1  22
BRANCH  11  29
HETATM   29  O1  UNL     1     -10.402   8.371  16.523  1.00  0.00    -0.396 OA
HETATM   30  H21 UNL     1      -9.713   8.228  17.192  1.00  0.00     0.210 HD
ENDBRANCH  11  29
TORSDOF 5
ENDMDL
