MODEL 1
REMARK minimizedAffinity -8.62377071
REMARK  4 active torsions:
REMARK  status: ('A' for Active; 'I' for Inactive)
REMARK    1  A    between atoms: C4_4  and  C5_5 
REMARK    2  A    between atoms: C5_5  and  C6_7 
REMARK    3  A    between atoms: C6_7  and  C7_8 
REMARK    4  A    between atoms: C7_8  and  C9_10 
ROOT
HETATM    1  C9  UNL     1       2.793   8.069  12.873  1.00  0.00    -0.001 C 
HETATM    2  C10 UNL     1       3.228   7.652  14.300  1.00  0.00     0.007 C 
HETATM    3  C11 UNL     1       1.973   7.754  15.199  1.00  0.00     0.015 C 
HETATM    4  C12 UNL     1       0.891   8.418  14.318  1.00  0.00    -0.013 C 
HETATM    5  C13 UNL     1       1.101   9.959  14.473  1.00  0.00     0.021 C 
HETATM    6  C14 UNL     1      -0.575   8.156  14.638  1.00  0.00    -0.070 C 
HETATM    7  C15 UNL     1      -1.005   7.897  15.884  1.00  0.00    -0.022 C 
HETATM    8  C16 UNL     1      -2.433   7.691  16.274  1.00  0.00     0.034 C 
HETATM    9  C17 UNL     1      -3.504   7.843  15.164  1.00  0.00     0.013 C 
HETATM   10  C18 UNL     1      -4.271   6.514  14.820  1.00  0.00     0.018 C 
HETATM   11  C19 UNL     1      -4.987   5.969  16.078  1.00  0.00     0.023 C 
HETATM   12  C20 UNL     1      -3.378   5.405  14.243  1.00  0.00     0.023 C 
HETATM   13  C21 UNL     1      -5.376   6.811  13.789  1.00  0.00     0.135 C 
HETATM   14  O2  UNL     1      -6.225   5.972  13.481  1.00  0.00    -0.297 OA
HETATM   15  C22 UNL     1      -5.396   8.181  13.158  1.00  0.00     0.080 C 
HETATM   16  C23 UNL     1      -3.981   8.524  12.723  1.00  0.00     0.017 C 
HETATM   17  C24 UNL     1      -2.997   8.678  13.920  1.00  0.00    -0.031 C 
HETATM   18  C25 UNL     1      -2.985  10.178  14.331  1.00  0.00     0.016 C 
HETATM   19  C26 UNL     1      -1.557   8.220  13.476  1.00  0.00     0.024 C 
HETATM   20  C27 UNL     1      -0.990   8.962  12.236  1.00  0.00     0.010 C 
HETATM   21  C28 UNL     1       0.448   8.571  11.816  1.00  0.00     0.011 C 
HETATM   22  C29 UNL     1       1.249   7.833  12.908  1.00  0.00    -0.029 C 
HETATM   23  C30 UNL     1       0.968   6.303  12.775  1.00  0.00     0.016 C 
ENDROOT
BRANCH   1  24
HETATM   24  C7  UNL     1       3.578   7.480  11.664  1.00  0.00    -0.007 C 
HETATM   25  C8  UNL     1       5.072   7.345  12.007  1.00  0.00     0.011 C 
BRANCH  24  26
HETATM   26  C6  UNL     1       3.030   6.194  11.010  1.00  0.00     0.087 C 
BRANCH  26  27
HETATM   27  C5  UNL     1       3.686   5.706   9.720  1.00  0.00     0.149 C 
HETATM   28  O1  UNL     1       4.802   5.201   9.683  1.00  0.00    -0.293 OA
BRANCH  27  29
HETATM   29  C4  UNL     1       2.863   5.888   8.479  1.00  0.00     0.052 C 
HETATM   30  C2  UNL     1       2.602   7.037   7.826  1.00  0.00    -0.084 C 
HETATM   31  C1  UNL     1       3.056   8.413   8.232  1.00  0.00     0.043 C 
HETATM   32  C3  UNL     1       1.775   7.018   6.563  1.00  0.00     0.043 C 
ENDBRANCH  27  29
ENDBRANCH  26  27
ENDBRANCH  24  26
ENDBRANCH   1  24
TORSDOF 4
ENDMDL
