MODEL 1
REMARK minimizedAffinity -8.84625912
REMARK CNNscore 0.745299876
REMARK CNNaffinity 6.3252883
REMARK  12 active torsions:
REMARK  status: ('A' for Active; 'I' for Inactive)
REMARK    1  A    between atoms: C19_21  and  O3_22 
REMARK    2  A    between atoms: C19_21  and  C20_23 
REMARK    3  A    between atoms: C20_23  and  C21_25 
REMARK    4  A    between atoms: C21_25  and  O5_26 
REMARK    5  A    between atoms: O5_26  and  C22_27 
REMARK    6  A    between atoms: C22_27  and  C23_29 
REMARK    7  A    between atoms: C23_29  and  C24_30 
REMARK    8  A    between atoms: C24_30  and  C25_31 
REMARK       I    between atoms: C25_31  and  N1_33 
REMARK    9  A    between atoms: N1_33  and  C26_34 
REMARK   10  A    between atoms: C26_34  and  C27_35 
REMARK   11  A    between atoms: C27_35  and  C28_36 
REMARK   12  A    between atoms: C31_39  and  O8_40 
ROOT
HETATM    1  C1  UNL     1     -15.520  44.472 -24.694  1.00  0.00     0.021 C 
HETATM    2  C2  UNL     1     -15.904  45.728 -25.510  1.00  0.00    -0.009 C 
HETATM    3  C3  UNL     1     -16.457  46.828 -24.551  1.00  0.00     0.022 C 
HETATM    4  C4  UNL     1     -17.849  46.532 -24.011  1.00  0.00     0.084 C 
HETATM    5  C5  UNL     1     -18.811  46.304 -25.144  1.00  0.00     0.149 C 
HETATM    6  O1  UNL     1     -20.001  46.600 -25.071  1.00  0.00    -0.293 OA
HETATM    7  C6  UNL     1     -18.305  45.616 -26.353  1.00  0.00     0.053 C 
HETATM    8  C7  UNL     1     -17.003  45.314 -26.507  1.00  0.00    -0.067 C 
HETATM    9  C8  UNL     1     -16.568  44.497 -27.701  1.00  0.00     0.035 C 
HETATM   10  C9  UNL     1     -15.401  45.142 -28.437  1.00  0.00     0.010 C 
HETATM   11  C10 UNL     1     -14.226  45.408 -27.486  1.00  0.00     0.003 C 
HETATM   12  C11 UNL     1     -14.689  46.321 -26.310  1.00  0.00     0.072 C 
HETATM   13  C12 UNL     1     -13.471  46.739 -25.459  1.00  0.00     0.133 C 
HETATM   14  O2  UNL     1     -13.447  46.677 -24.232  1.00  0.00    -0.297 OA
HETATM   15  C13 UNL     1     -12.280  47.321 -26.209  1.00  0.00     0.091 C 
HETATM   16  C14 UNL     1     -11.836  46.346 -27.306  1.00  0.00     0.005 C 
HETATM   17  C15 UNL     1     -11.277  45.059 -26.642  1.00  0.00     0.019 C 
HETATM   18  C16 UNL     1     -13.060  46.084 -28.221  1.00  0.00     0.002 C 
HETATM   19  C17 UNL     1     -12.459  45.376 -29.431  1.00  0.00     0.009 C 
HETATM   20  C18 UNL     1     -11.051  45.991 -29.586  1.00  0.00     0.047 C 
HETATM   21  C19 UNL     1     -10.837  46.905 -28.359  1.00  0.00     0.128 C 
ENDROOT
BRANCH  21  22
HETATM   22  O3  UNL     1     -11.256  48.227 -28.751  1.00  0.00    -0.381 OA
HETATM   23  H25 UNL     1     -10.825  48.855 -28.134  1.00  0.00     0.211 HD
ENDBRANCH  21  22
BRANCH  21  24
HETATM   24  C20 UNL     1      -9.397  47.065 -27.839  1.00  0.00     0.185 C 
HETATM   25  O4  UNL     1      -8.485  46.466 -28.426  1.00  0.00    -0.292 OA
BRANCH  24  26
HETATM   26  C21 UNL     1      -9.130  47.962 -26.633  1.00  0.00     0.260 C 
BRANCH  26  27
HETATM   27  O5  UNL     1      -7.926  47.609 -25.950  1.00  0.00    -0.314 OA
BRANCH  27  28
HETATM   28  C22 UNL     1      -7.679  48.357 -24.836  1.00  0.00     0.259 C 
HETATM   29  O6  UNL     1      -8.343  49.323 -24.488  1.00  0.00    -0.265 OA
BRANCH  28  30
HETATM   30  C23 UNL     1      -6.463  47.833 -24.123  1.00  0.00     0.120 C 
BRANCH  30  31
HETATM   31  C24 UNL     1      -5.201  48.503 -24.651  1.00  0.00     0.112 C 
BRANCH  31  32
HETATM   32  C25 UNL     1      -4.221  48.812 -23.543  1.00  0.00     0.218 C 
HETATM   33  O7  UNL     1      -4.364  48.438 -22.385  1.00  0.00    -0.274 OA
HETATM   34  N1  UNL     1      -3.141  49.547 -23.979  1.00  0.00    -0.361 N 
HETATM   35  H32 UNL     1      -3.059  49.771 -24.962  1.00  0.00     0.162 HD
BRANCH  34  36
HETATM   36  C26 UNL     1      -2.055  49.917 -23.092  1.00  0.00     0.127 C 
BRANCH  36  37
HETATM   37  C27 UNL     1      -1.119  50.950 -23.725  1.00  0.00     0.058 C 
BRANCH  37  38
HETATM   38  C28 UNL     1      -0.435  51.796 -22.680  1.00  0.00    -0.057 A 
HETATM   39  C29 UNL     1       0.473  52.796 -23.057  1.00  0.00     0.010 A 
HETATM   40  C30 UNL     1       1.085  53.599 -22.091  1.00  0.00     0.037 A 
HETATM   41  C31 UNL     1       0.786  53.402 -20.747  1.00  0.00     0.065 A 
HETATM   42  C32 UNL     1      -0.114  52.418 -20.356  1.00  0.00     0.037 A 
HETATM   43  C33 UNL     1      -0.726  51.616 -21.320  1.00  0.00     0.010 A 
BRANCH  41  44
HETATM   44  O8  UNL     1       1.358  54.165 -19.772  1.00  0.00    -0.361 OA
HETATM   45  H39 UNL     1       1.954  54.806 -20.192  1.00  0.00     0.217 HD
ENDBRANCH  41  44
ENDBRANCH  37  38
ENDBRANCH  36  37
ENDBRANCH  34  36
ENDBRANCH  31  32
ENDBRANCH  30  31
ENDBRANCH  28  30
ENDBRANCH  27  28
ENDBRANCH  26  27
ENDBRANCH  24  26
ENDBRANCH  21  24
TORSDOF 12
ENDMDL
