MODEL 1
REMARK minimizedAffinity -8.21092224
REMARK  8 active torsions:
REMARK  status: ('A' for Active; 'I' for Inactive)
REMARK    1  A    between atoms: C4_4  and  C5_5 
REMARK    2  A    between atoms: C5_5  and  C6_6 
REMARK    3  A    between atoms: C6_6  and  C7_7 
REMARK    4  A    between atoms: C7_7  and  C9_9 
REMARK    5  A    between atoms: C21_21  and  C22_22 
REMARK    6  A    between atoms: C22_22  and  C23_23 
REMARK    7  A    between atoms: C23_23  and  C24_24 
REMARK    8  A    between atoms: C24_24  and  O1_25 
ROOT
HETATM    1  C9  UNL     1      -5.776   6.981  14.578  1.00  0.00    -0.002 C 
HETATM    2  C10 UNL     1      -6.120   8.059  13.508  1.00  0.00     0.006 C 
HETATM    3  C11 UNL     1      -4.766   8.604  12.975  1.00  0.00     0.011 C 
HETATM    4  C12 UNL     1      -3.709   8.050  13.956  1.00  0.00    -0.032 C 
HETATM    5  C13 UNL     1      -3.747   9.021  15.182  1.00  0.00     0.016 C 
HETATM    6  C14 UNL     1      -2.270   7.887  13.393  1.00  0.00     0.003 C 
HETATM    7  C15 UNL     1      -1.617   9.179  12.853  1.00  0.00     0.010 C 
HETATM    8  C16 UNL     1      -0.142   8.984  12.483  1.00  0.00     0.035 C 
HETATM    9  C17 UNL     1       0.156   7.539  12.156  1.00  0.00    -0.073 C 
HETATM   10  C18 UNL     1       0.520   7.106  10.919  1.00  0.00    -0.085 C 
HETATM   11  C19 UNL     1       0.859   5.669  10.585  1.00  0.00     0.043 C 
HETATM   12  C20 UNL     1       0.637   7.995   9.702  1.00  0.00     0.043 C 
HETATM   13  C21 UNL     1      -0.069   6.588  13.362  1.00  0.00     0.023 C 
HETATM   14  C25 UNL     1      -1.278   7.060  14.317  1.00  0.00    -0.032 C 
HETATM   15  C26 UNL     1      -0.755   7.898  15.513  1.00  0.00     0.016 C 
HETATM   16  C27 UNL     1      -1.988   5.795  14.934  1.00  0.00     0.011 C 
HETATM   17  C28 UNL     1      -3.473   5.947  15.339  1.00  0.00     0.011 C 
HETATM   18  C29 UNL     1      -4.303   6.615  14.232  1.00  0.00    -0.032 C 
HETATM   19  C30 UNL     1      -4.284   5.653  13.002  1.00  0.00     0.016 C 
ENDROOT
BRANCH   1  20
HETATM   20  C7  UNL     1      -6.814   5.832  14.775  1.00  0.00    -0.014 C 
HETATM   21  C8  UNL     1      -7.050   5.418  16.232  1.00  0.00     0.010 C 
BRANCH  20  22
HETATM   22  C6  UNL     1      -6.372   4.602  13.929  1.00  0.00     0.008 C 
BRANCH  22  23
HETATM   23  C5  UNL     1      -7.487   3.870  13.166  1.00  0.00     0.028 C 
BRANCH  23  24
HETATM   24  C4  UNL     1      -7.116   2.519  12.622  1.00  0.00    -0.025 C 
HETATM   25  C2  UNL     1      -6.258   2.252  11.618  1.00  0.00    -0.091 C 
HETATM   26  C1  UNL     1      -6.005   0.835  11.179  1.00  0.00     0.042 C 
HETATM   27  C3  UNL     1      -5.477   3.288  10.858  1.00  0.00     0.042 C 
ENDBRANCH  23  24
ENDBRANCH  22  23
ENDBRANCH  20  22
ENDBRANCH   1  20
BRANCH  13  28
HETATM   28  C22 UNL     1       1.301   6.305  14.031  1.00  0.00     0.012 C 
BRANCH  28  29
HETATM   29  C23 UNL     1       2.325   7.436  13.877  1.00  0.00     0.027 C 
BRANCH  29  30
HETATM   30  C24 UNL     1       3.046   7.740  15.186  1.00  0.00     0.164 C 
BRANCH  30  31
HETATM   31  O1  UNL     1       3.364   6.530  15.856  1.00  0.00    -0.401 OA
HETATM   32  H42 UNL     1       3.824   6.770  16.678  1.00  0.00     0.209 HD
ENDBRANCH  30  31
ENDBRANCH  29  30
ENDBRANCH  28  29
ENDBRANCH  13  28
TORSDOF 8
ENDMDL
