MODEL 1
REMARK minimizedAffinity -8.31518173
REMARK  13 active torsions:
REMARK  status: ('A' for Active; 'I' for Inactive)
REMARK    1  A    between atoms: C2_2  and  C3_3 
REMARK    2  A    between atoms: C2_2  and  C14_14 
REMARK    3  A    between atoms: C4_4  and  C5_5 
REMARK    4  A    between atoms: C6_6  and  C8_8 
REMARK    5  A    between atoms: C8_8  and  C9_9 
REMARK    6  A    between atoms: C9_9  and  C10_10 
REMARK    7  A    between atoms: C18_18  and  C19_19 
REMARK    8  A    between atoms: C19_19  and  C20_20 
REMARK    9  A    between atoms: C20_20  and  C21_21 
REMARK   10  A    between atoms: C21_21  and  O1_22 
REMARK   11  A    between atoms: C23_24  and  C25_26 
REMARK   12  A    between atoms: C28_30  and  O3_32 
REMARK   13  A    between atoms: C30_33  and  O4_34 
ROOT
HETATM    1  C14 UNL     1      -0.916   6.000  13.569  1.00  0.00     0.047 C 
HETATM    2  C15 UNL     1      -1.407   7.340  13.005  1.00  0.00     0.013 C 
HETATM    3  C16 UNL     1      -0.558   8.340  13.781  1.00  0.00     0.017 C 
HETATM    4  C17 UNL     1       0.875   7.715  13.888  1.00  0.00     0.024 C 
HETATM    5  C18 UNL     1       1.937   8.459  12.966  1.00  0.00     0.029 C 
HETATM    6  C22 UNL     1       3.364   7.874  13.178  1.00  0.00    -0.066 C 
HETATM    7  C23 UNL     1       4.219   7.279  12.303  1.00  0.00    -0.021 C 
HETATM    8  C24 UNL     1       5.656   6.932  12.622  1.00  0.00     0.052 C 
HETATM    9  C26 UNL     1       3.780   8.045  14.636  1.00  0.00     0.038 C 
HETATM   10  C27 UNL     1       2.808   7.314  15.553  1.00  0.00     0.042 C 
HETATM   11  C28 UNL     1       1.357   7.808  15.401  1.00  0.00     0.065 C 
HETATM   12  C29 UNL     1       1.236   9.223  16.015  1.00  0.00     0.047 C 
HETATM   13  C30 UNL     1       0.623   6.204  13.496  1.00  0.00     0.138 C 
ENDROOT
BRANCH   5  14
HETATM   14  C19 UNL     1       1.461   8.800  11.523  1.00  0.00     0.012 C 
BRANCH  14  15
HETATM   15  C20 UNL     1       1.039   7.566  10.706  1.00  0.00     0.027 C 
BRANCH  15  16
HETATM   16  C21 UNL     1       0.578   7.930   9.298  1.00  0.00     0.164 C 
BRANCH  16  17
HETATM   17  O1  UNL     1      -0.367   8.991   9.309  1.00  0.00    -0.401 OA
HETATM   18  H32 UNL     1       0.079   9.771   9.675  1.00  0.00     0.209 HD
ENDBRANCH  16  17
ENDBRANCH  15  16
ENDBRANCH  14  15
ENDBRANCH   5  14
BRANCH  11  19
HETATM   19  O3  UNL     1       0.534   6.957  16.219  1.00  0.00    -0.389 OA
HETATM   20  H44 UNL     1       0.881   6.991  17.129  1.00  0.00     0.210 HD
ENDBRANCH  11  19
BRANCH  13  21
HETATM   21  O4  UNL     1       1.100   5.910  12.185  1.00  0.00    -0.394 OA
HETATM   22  H46 UNL     1       0.769   5.024  11.949  1.00  0.00     0.210 HD
ENDBRANCH  13  21
BRANCH   1  23
HETATM   23  C2  UNL     1      -1.462   4.725  12.928  1.00  0.00    -0.061 C 
HETATM   24  C1  UNL     1      -0.719   3.928  12.138  1.00  0.00     0.019 C 
BRANCH  23  25
HETATM   25  C3  UNL     1      -2.855   4.345  13.160  1.00  0.00     0.007 C 
HETATM   26  C4  UNL     1      -3.945   4.845  12.555  1.00  0.00     0.001 C 
BRANCH  26  27
HETATM   27  C5  UNL     1      -5.288   4.433  12.917  1.00  0.00     0.002 C 
HETATM   28  C6  UNL     1      -6.017   3.464  12.331  1.00  0.00    -0.084 C 
HETATM   29  C7  UNL     1      -5.535   2.575  11.214  1.00  0.00     0.043 C 
BRANCH  28  30
HETATM   30  C8  UNL     1      -7.438   3.197  12.800  1.00  0.00     0.037 C 
BRANCH  30  31
HETATM   31  C9  UNL     1      -8.347   4.421  12.657  1.00  0.00     0.031 C 
BRANCH  31  32
HETATM   32  C10 UNL     1      -8.108   5.427  13.753  1.00  0.00    -0.024 C 
HETATM   33  C11 UNL     1      -8.889   6.477  14.073  1.00  0.00    -0.091 C 
HETATM   34  C12 UNL     1     -10.198   6.807  13.408  1.00  0.00     0.042 C 
HETATM   35  C13 UNL     1      -8.497   7.422  15.174  1.00  0.00     0.042 C 
ENDBRANCH  31  32
ENDBRANCH  30  31
ENDBRANCH  28  30
ENDBRANCH  26  27
ENDBRANCH  23  25
ENDBRANCH   1  23
BRANCH   7  36
HETATM   36  C25 UNL     1       3.855   6.865  10.915  1.00  0.00     0.265 C 
HETATM   37  O2  UNL     1       4.520   7.163   9.927  1.00  0.00    -0.302 OA
ENDBRANCH   7  36
TORSDOF 13
ENDMDL
