MODEL 1
REMARK minimizedAffinity -8.39931488
REMARK CNNscore 0.59748137
REMARK CNNaffinity 6.83445692
REMARK  19 active torsions:
REMARK  status: ('A' for Active; 'I' for Inactive)
REMARK    1  A    between atoms: C14_15  and  O2_16 
REMARK    2  A    between atoms: C14_15  and  C15_17 
REMARK    3  A    between atoms: C15_17  and  C16_19 
REMARK    4  A    between atoms: C16_19  and  O4_20 
REMARK    5  A    between atoms: O4_20  and  C17_21 
REMARK    6  A    between atoms: C17_21  and  C18_23 
REMARK    7  A    between atoms: C18_23  and  C19_24 
REMARK    8  A    between atoms: C19_24  and  C20_25 
REMARK       I    between atoms: C20_25  and  N1_27 
REMARK    9  A    between atoms: N1_27  and  C21_28 
REMARK   10  A    between atoms: C21_28  and  C22_29 
REMARK   11  A    between atoms: C22_29  and  C23_30 
REMARK   12  A    between atoms: C23_30  and  C24_31 
REMARK   13  A    between atoms: C24_31  and  C25_32 
REMARK   14  A    between atoms: C25_32  and  C26_33 
REMARK       I    between atoms: C26_33  and  N2_35 
REMARK   15  A    between atoms: N2_35  and  C27_36 
REMARK   16  A    between atoms: C27_36  and  C28_37 
REMARK   17  A    between atoms: C28_37  and  C29_38 
REMARK   18  A    between atoms: C32_41  and  O8_42 
REMARK   19  A    between atoms: C33_43  and  O9_44 
ROOT
HETATM    1  C17 UNL     1       3.717   8.704  14.389  1.00  0.00     0.259 C 
HETATM    2  O5  UNL     1       4.084   8.678  15.555  1.00  0.00    -0.265 OA
ENDROOT
BRANCH   1   3
HETATM    3  O4  UNL     1       4.540   8.633  13.310  1.00  0.00    -0.314 OA
BRANCH   3   4
HETATM    4  C16 UNL     1       5.539   7.635  13.371  1.00  0.00     0.260 C 
BRANCH   4   5
HETATM    5  C15 UNL     1       7.014   8.008  13.536  1.00  0.00     0.185 C 
HETATM    6  O3  UNL     1       7.782   7.897  12.564  1.00  0.00    -0.292 OA
BRANCH   5   7
HETATM    7  C14 UNL     1       7.629   8.365  14.922  1.00  0.00     0.128 C 
HETATM    8  C13 UNL     1       8.965   7.692  15.208  1.00  0.00     0.047 C 
HETATM    9  C12 UNL     1      10.039   8.715  14.861  1.00  0.00     0.009 C 
HETATM   10  C11 UNL     1       9.358  10.097  14.802  1.00  0.00     0.002 C 
HETATM   11  C10 UNL     1      10.046  11.162  15.680  1.00  0.00    -0.004 C 
HETATM   12  C35 UNL     1       7.869   9.887  15.204  1.00  0.00    -0.002 C 
HETATM   13  C9  UNL     1      11.449  11.518  15.180  1.00  0.00     0.010 C 
HETATM   14  C39 UNL     1      10.115  10.734  17.170  1.00  0.00     0.002 C 
HETATM   15  C8  UNL     1      12.026  12.670  16.000  1.00  0.00     0.035 C 
HETATM   16  C7  UNL     1      12.033  12.362  17.479  1.00  0.00    -0.068 C 
HETATM   17  C2  UNL     1      10.718  11.855  18.097  1.00  0.00    -0.016 C 
HETATM   18  C6  UNL     1      13.162  12.546  18.184  1.00  0.00     0.053 C 
HETATM   19  C1  UNL     1       9.757  13.051  18.264  1.00  0.00     0.020 C 
HETATM   20  C3  UNL     1      11.007  11.226  19.495  1.00  0.00     0.022 C 
HETATM   21  C4  UNL     1      11.917  12.073  20.372  1.00  0.00     0.084 C 
HETATM   22  C5  UNL     1      13.208  12.375  19.656  1.00  0.00     0.149 C 
HETATM   23  O1  UNL     1      14.265  12.559  20.253  1.00  0.00    -0.293 OA
HETATM   24  C38 UNL     1       8.784  10.111  17.648  1.00  0.00     0.007 C 
HETATM   25  C37 UNL     1       7.622  10.327  16.686  1.00  0.00     0.013 C 
HETATM   26  C36 UNL     1       6.936  10.791  14.365  1.00  0.00     0.019 C 
BRANCH   7  27
HETATM   27  O2  UNL     1       6.692   7.836  15.885  1.00  0.00    -0.381 OA
HETATM   28  H19 UNL     1       5.828   7.769  15.423  1.00  0.00     0.211 HD
ENDBRANCH   7  27
ENDBRANCH   5   7
ENDBRANCH   4   5
ENDBRANCH   3   4
ENDBRANCH   1   3
BRANCH   1  29
HETATM   29  C18 UNL     1       2.281   8.767  13.930  1.00  0.00     0.120 C 
BRANCH  29  30
HETATM   30  C19 UNL     1       2.188   8.676  12.414  1.00  0.00     0.112 C 
BRANCH  30  31
HETATM   31  C20 UNL     1       0.755   8.790  11.935  1.00  0.00     0.217 C 
HETATM   32  O6  UNL     1       0.419   8.623  10.768  1.00  0.00    -0.274 OA
HETATM   33  N1  UNL     1      -0.119   9.106  12.947  1.00  0.00    -0.361 N 
HETATM   34  H26 UNL     1       0.200   8.932  13.902  1.00  0.00     0.162 HD
BRANCH  33  35
HETATM   35  C21 UNL     1      -1.540   9.236  12.727  1.00  0.00     0.122 C 
BRANCH  35  36
HETATM   36  C22 UNL     1      -2.310   7.929  12.902  1.00  0.00     0.020 C 
BRANCH  36  37
HETATM   37  C23 UNL     1      -3.836   8.035  12.956  1.00  0.00     0.002 C 
BRANCH  37  38
HETATM   38  C24 UNL     1      -4.437   8.975  14.008  1.00  0.00     0.009 C 
BRANCH  38  39
HETATM   39  C25 UNL     1      -4.804   8.431  15.388  1.00  0.00     0.103 C 
BRANCH  39  40
HETATM   40  C26 UNL     1      -6.156   7.743  15.482  1.00  0.00     0.217 C 
HETATM   41  O7  UNL     1      -7.231   8.332  15.450  1.00  0.00    -0.274 OA
HETATM   42  N2  UNL     1      -6.070   6.370  15.535  1.00  0.00    -0.361 N 
HETATM   43  H37 UNL     1      -5.183   5.920  15.344  1.00  0.00     0.162 HD
BRANCH  42  44
HETATM   44  C27 UNL     1      -7.256   5.530  15.587  1.00  0.00     0.127 C 
BRANCH  44  45
HETATM   45  C28 UNL     1      -7.881   5.269  14.210  1.00  0.00     0.058 C 
BRANCH  45  46
HETATM   46  C29 UNL     1      -7.070   4.317  13.363  1.00  0.00    -0.054 A 
HETATM   47  C30 UNL     1      -7.593   3.062  13.007  1.00  0.00     0.010 A 
HETATM   48  C31 UNL     1      -6.839   2.173  12.240  1.00  0.00     0.040 A 
HETATM   49  C32 UNL     1      -5.567   2.543  11.825  1.00  0.00     0.098 A 
HETATM   50  C33 UNL     1      -5.040   3.787  12.162  1.00  0.00     0.099 A 
HETATM   51  C34 UNL     1      -5.784   4.679  12.928  1.00  0.00     0.046 A 
BRANCH  49  52
HETATM   52  O8  UNL     1      -4.837   1.666  11.076  1.00  0.00    -0.358 OA
HETATM   53  H44 UNL     1      -3.983   2.119  10.930  1.00  0.00     0.217 HD
ENDBRANCH  49  52
BRANCH  50  54
HETATM   54  O9  UNL     1      -3.784   4.090  11.716  1.00  0.00    -0.358 OA
HETATM   55  H45 UNL     1      -3.589   5.012  11.965  1.00  0.00     0.217 HD
ENDBRANCH  50  54
ENDBRANCH  45  46
ENDBRANCH  44  45
ENDBRANCH  42  44
ENDBRANCH  39  40
ENDBRANCH  38  39
ENDBRANCH  37  38
ENDBRANCH  36  37
ENDBRANCH  35  36
ENDBRANCH  33  35
ENDBRANCH  30  31
ENDBRANCH  29  30
ENDBRANCH   1  29
TORSDOF 19
ENDMDL
