MODEL 1
REMARK minimizedAffinity -9.69326496
REMARK  6 active torsions:
REMARK  status: ('A' for Active; 'I' for Inactive)
REMARK    1  A    between atoms: C2_2  and  C3_3 
REMARK    2  A    between atoms: C2_2  and  C4_5 
REMARK    3  A    between atoms: C3_3  and  O1_4 
REMARK    4  A    between atoms: C4_5  and  C6_7 
REMARK    5  A    between atoms: C7_8  and  C8_9 
REMARK    6  A    between atoms: C8_9  and  C10_11 
ROOT
HETATM    1  C10 UNL     1       0.465   6.039  13.313  1.00  0.00     0.002 C 
HETATM    2  C11 UNL     1      -0.156   7.072  14.289  1.00  0.00     0.007 C 
HETATM    3  C12 UNL     1      -1.649   6.724  14.402  1.00  0.00     0.010 C 
HETATM    4  C13 UNL     1      -1.788   5.395  13.658  1.00  0.00     0.023 C 
HETATM    5  C14 UNL     1      -3.139   4.883  13.225  1.00  0.00    -0.070 C 
HETATM    6  C15 UNL     1      -4.300   5.404  13.652  1.00  0.00     0.004 C 
HETATM    7  C16 UNL     1      -5.560   4.750  13.420  1.00  0.00     0.004 C 
HETATM    8  C17 UNL     1      -5.700   3.726  12.560  1.00  0.00    -0.071 C 
HETATM    9  C18 UNL     1      -7.056   3.102  12.323  1.00  0.00     0.035 C 
HETATM   10  C19 UNL     1      -6.995   1.579  12.286  1.00  0.00     0.004 C 
HETATM   11  C20 UNL     1      -5.948   1.093  11.291  1.00  0.00     0.001 C 
HETATM   12  C21 UNL     1      -4.570   1.652  11.642  1.00  0.00     0.014 C 
HETATM   13  C22 UNL     1      -4.511   3.205  11.738  1.00  0.00    -0.013 C 
HETATM   14  C23 UNL     1      -4.669   3.815  10.322  1.00  0.00     0.021 C 
HETATM   15  C24 UNL     1      -3.111   3.594  12.400  1.00  0.00     0.027 C 
HETATM   16  C25 UNL     1      -1.933   3.547  11.385  1.00  0.00     0.011 C 
HETATM   17  C26 UNL     1      -0.599   4.098  11.914  1.00  0.00     0.011 C 
HETATM   18  C27 UNL     1      -0.761   5.512  12.504  1.00  0.00    -0.032 C 
HETATM   19  C28 UNL     1      -1.221   6.500  11.410  1.00  0.00     0.016 C 
ENDROOT
BRANCH   1  20
HETATM   20  C8  UNL     1       1.771   6.524  12.619  1.00  0.00     0.008 C 
HETATM   21  C9  UNL     1       2.626   7.540  13.386  1.00  0.00     0.014 C 
BRANCH  20  22
HETATM   22  C7  UNL     1       1.512   6.896  11.169  1.00  0.00    -0.026 C 
HETATM   23  C6  UNL     1       2.195   7.776  10.415  1.00  0.00    -0.026 C 
BRANCH  23  24
HETATM   24  C4  UNL     1       1.931   8.141   8.961  1.00  0.00     0.009 C 
HETATM   25  C5  UNL     1       0.434   8.280   8.642  1.00  0.00     0.014 C 
BRANCH  24  26
HETATM   26  C2  UNL     1       2.648   7.147   7.995  1.00  0.00     0.012 C 
HETATM   27  C1  UNL     1       1.885   6.993   6.668  1.00  0.00     0.012 C 
BRANCH  26  28
HETATM   28  C3  UNL     1       2.873   5.757   8.616  1.00  0.00     0.168 C 
BRANCH  28  29
HETATM   29  O1  UNL     1       3.335   4.818   7.655  1.00  0.00    -0.400 OA
HETATM   30  H7  UNL     1       4.237   5.075   7.398  1.00  0.00     0.209 HD
ENDBRANCH  28  29
ENDBRANCH  26  28
ENDBRANCH  24  26
ENDBRANCH  23  24
ENDBRANCH  20  22
ENDBRANCH   1  20
TORSDOF 6
ENDMDL
