MODEL 1
REMARK minimizedAffinity -8.14305878
REMARK CNNscore 0.595188677
REMARK CNNaffinity 7.34328461
REMARK  16 active torsions:
REMARK  status: ('A' for Active; 'I' for Inactive)
REMARK    1  A    between atoms: C2_2  and  C3_3 
REMARK    2  A    between atoms: C2_2  and  C4_5 
REMARK    3  A    between atoms: C12_13  and  O2_14 
REMARK    4  A    between atoms: O2_14  and  C13_15 
REMARK    5  A    between atoms: C13_15  and  C14_17 
REMARK    6  A    between atoms: C14_17  and  C16_19 
REMARK    7  A    between atoms: C16_19  and  O4_20 
REMARK    8  A    between atoms: C16_19  and  C17_21 
REMARK    9  A    between atoms: C19_23  and  C20_24 
REMARK   10  A    between atoms: C20_24  and  C21_25 
REMARK   11  A    between atoms: C20_24  and  C22_27 
REMARK   12  A    between atoms: C21_25  and  O5_26 
REMARK   13  A    between atoms: C22_27  and  C23_28 
REMARK   14  A    between atoms: C23_28  and  C24_29 
REMARK   15  A    between atoms: C24_29  and  C25_30 
REMARK   16  A    between atoms: C25_30  and  C26_31 
ROOT
HETATM    1  C13 UNL     1       0.141  52.448 -24.607  1.00  0.00     0.266 C 
HETATM    2  O3  UNL     1       0.953  53.366 -24.607  1.00  0.00    -0.265 OA
ENDROOT
BRANCH   1   3
HETATM    3  O2  UNL     1      -0.794  52.240 -23.635  1.00  0.00    -0.312 OA
BRANCH   3   4
HETATM    4  C12 UNL     1      -0.660  51.004 -22.910  1.00  0.00     0.170 C 
HETATM    5  C11 UNL     1      -1.892  50.144 -23.179  1.00  0.00     0.036 C 
HETATM    6  C10 UNL     1      -1.929  48.864 -22.343  1.00  0.00     0.007 C 
HETATM    7  C8  UNL     1      -1.193  48.960 -20.989  1.00  0.00    -0.007 C 
HETATM    8  C6  UNL     1      -1.187  50.411 -20.405  1.00  0.00    -0.003 C 
HETATM    9  C9  UNL     1      -1.737  47.887 -20.041  1.00  0.00     0.011 C 
HETATM   10  C5  UNL     1      -0.377  50.471 -19.068  1.00  0.00     0.030 C 
HETATM   11  C7  UNL     1      -2.625  50.915 -20.117  1.00  0.00     0.019 C 
HETATM   12  C28 UNL     1      -0.486  51.317 -21.432  1.00  0.00     0.129 A 
HETATM   13  C4  UNL     1      -0.249  51.895 -18.480  1.00  0.00     0.094 C 
HETATM   14  C30 UNL     1      -0.085  53.020 -19.511  1.00  0.00     0.167 C 
HETATM   15  C29 UNL     1       0.073  52.643 -20.936  1.00  0.00     0.230 A 
HETATM   16  O7  UNL     1      -0.123  54.209 -19.201  1.00  0.00    -0.294 OA
HETATM   17  O6  UNL     1       0.924  51.520 -21.151  1.00  0.00    -0.358 OA
BRANCH  13  18
HETATM   18  C2  UNL     1       0.848  51.963 -17.441  1.00  0.00    -0.018 C 
HETATM   19  C1  UNL     1       1.963  52.710 -17.531  1.00  0.00     0.022 C 
BRANCH  18  20
HETATM   20  C3  UNL     1       0.657  51.141 -16.210  1.00  0.00     0.265 C 
HETATM   21  O1  UNL     1       0.336  51.607 -15.122  1.00  0.00    -0.302 OA
ENDBRANCH  18  20
ENDBRANCH  13  18
ENDBRANCH   3   4
ENDBRANCH   1   3
BRANCH   1  22
HETATM   22  C14 UNL     1       0.027  51.428 -25.721  1.00  0.00     0.114 C 
HETATM   23  C15 UNL     1       1.404  51.210 -26.355  1.00  0.00     0.023 C 
BRANCH  22  24
HETATM   24  C16 UNL     1      -1.049  51.868 -26.727  1.00  0.00     0.159 C 
BRANCH  24  25
HETATM   25  O4  UNL     1      -1.233  53.281 -26.640  1.00  0.00    -0.390 OA
HETATM   26  H24 UNL     1      -2.040  53.491 -27.142  1.00  0.00     0.210 HD
ENDBRANCH  24  25
BRANCH  24  27
HETATM   27  C17 UNL     1      -2.415  51.229 -26.504  1.00  0.00    -0.058 C 
HETATM   28  C18 UNL     1      -3.443  52.090 -25.809  1.00  0.00     0.046 C 
HETATM   29  C19 UNL     1      -2.657  49.969 -26.931  1.00  0.00    -0.015 C 
BRANCH  29  30
HETATM   30  C20 UNL     1      -3.941  49.177 -26.743  1.00  0.00     0.032 C 
BRANCH  30  31
HETATM   31  C21 UNL     1      -3.889  48.302 -25.476  1.00  0.00     0.172 C 
BRANCH  31  32
HETATM   32  O5  UNL     1      -4.835  48.768 -24.516  1.00  0.00    -0.400 OA
HETATM   33  H32 UNL     1      -4.823  48.141 -23.772  1.00  0.00     0.209 HD
ENDBRANCH  31  32
ENDBRANCH  30  31
BRANCH  30  34
HETATM   34  C22 UNL     1      -4.322  48.367 -28.002  1.00  0.00     0.010 C 
BRANCH  34  35
HETATM   35  C23 UNL     1      -5.759  47.838 -28.123  1.00  0.00     0.001 C 
BRANCH  35  36
HETATM   36  C24 UNL     1      -6.359  47.954 -29.524  1.00  0.00     0.000 C 
BRANCH  36  37
HETATM   37  C25 UNL     1      -5.341  47.705 -30.646  1.00  0.00    -0.000 C 
BRANCH  37  38
HETATM   38  C26 UNL     1      -5.461  46.351 -31.353  1.00  0.00    -0.005 C 
HETATM   39  C27 UNL     1      -4.235  45.942 -32.151  1.00  0.00     0.005 C 
ENDBRANCH  37  38
ENDBRANCH  36  37
ENDBRANCH  35  36
ENDBRANCH  34  35
ENDBRANCH  30  34
ENDBRANCH  29  30
ENDBRANCH  24  27
ENDBRANCH  22  24
ENDBRANCH   1  22
TORSDOF 16
ENDMDL
