MODEL 1
REMARK minimizedAffinity -7.41971254
REMARK CNNscore 0.633031249
REMARK CNNaffinity 6.58724022
REMARK  8 active torsions:
REMARK  status: ('A' for Active; 'I' for Inactive)
REMARK    1  A    between atoms: C2_2  and  C30_34 
REMARK    2  A    between atoms: C3_3  and  C4_4 
REMARK    3  A    between atoms: C4_4  and  O1_5 
REMARK    4  A    between atoms: C4_4  and  C5_6 
REMARK    5  A    between atoms: C5_6  and  C6_7 
REMARK    6  A    between atoms: C6_7  and  C8_9 
REMARK    7  A    between atoms: C10_11  and  O2_12 
REMARK    8  A    between atoms: C30_34  and  O6_36 
ROOT
HETATM    1  C8  UNL     1       1.142   6.544  11.572  1.00  0.00     0.001 C 
HETATM    2  C9  UNL     1       2.326   6.351  12.568  1.00  0.00     0.038 C 
HETATM    3  C10 UNL     1       1.945   7.066  13.879  1.00  0.00     0.131 C 
HETATM    4  C11 UNL     1       0.416   7.305  13.762  1.00  0.00     0.014 C 
HETATM    5  C12 UNL     1      -0.329   5.992  14.162  1.00  0.00     0.023 C 
HETATM    6  C13 UNL     1      -0.239   8.399  14.605  1.00  0.00    -0.058 C 
HETATM    7  C14 UNL     1      -1.396   8.990  14.210  1.00  0.00    -0.000 C 
HETATM    8  C15 UNL     1      -1.965   8.628  12.846  1.00  0.00     0.157 C 
HETATM    9  O3  UNL     1      -3.080   9.023  12.501  1.00  0.00    -0.293 OA
HETATM   10  C16 UNL     1      -1.169   7.759  11.877  1.00  0.00     0.094 C 
HETATM   11  C17 UNL     1       0.315   7.690  12.240  1.00  0.00    -0.019 C 
HETATM   12  C18 UNL     1       0.966   9.069  11.901  1.00  0.00     0.017 C 
HETATM   13  C19 UNL     1      -2.164  10.022  15.076  1.00  0.00    -0.008 C 
HETATM   14  C20 UNL     1      -1.955  11.397  14.396  1.00  0.00     0.021 C 
HETATM   15  C21 UNL     1      -3.696   9.714  15.132  1.00  0.00     0.022 C 
HETATM   16  C22 UNL     1      -4.420  10.135  16.410  1.00  0.00     0.080 C 
HETATM   17  C23 UNL     1      -3.733  11.287  17.099  1.00  0.00     0.135 C 
HETATM   18  O4  UNL     1      -4.348  12.316  17.376  1.00  0.00    -0.297 OA
HETATM   19  C24 UNL     1      -2.275  11.062  17.512  1.00  0.00     0.018 C 
HETATM   20  C25 UNL     1      -1.526  12.407  17.548  1.00  0.00     0.023 C 
HETATM   21  C26 UNL     1      -2.311  10.520  18.959  1.00  0.00     0.023 C 
HETATM   22  C27 UNL     1      -1.637   9.992  16.562  1.00  0.00     0.014 C 
HETATM   23  C28 UNL     1      -0.106   9.972  16.606  1.00  0.00     0.011 C 
HETATM   24  C29 UNL     1       0.436   8.725  15.917  1.00  0.00     0.036 C 
ENDROOT
BRANCH   1  25
HETATM   25  C6  UNL     1       1.627   6.679  10.093  1.00  0.00    -0.011 C 
HETATM   26  C7  UNL     1       0.532   7.343   9.240  1.00  0.00     0.010 C 
BRANCH  25  27
HETATM   27  C5  UNL     1       2.977   7.441   9.994  1.00  0.00     0.040 C 
BRANCH  27  28
HETATM   28  C4  UNL     1       4.205   6.720  10.582  1.00  0.00     0.142 C 
BRANCH  28  29
HETATM   29  C3  UNL     1       5.387   7.642  10.684  1.00  0.00     0.018 C 
HETATM   30  C2  UNL     1       5.964   8.102  11.814  1.00  0.00     0.010 C 
HETATM   31  C1  UNL     1       5.568   7.744  13.214  1.00  0.00     0.055 C 
BRANCH  30  32
HETATM   32  C30 UNL     1       7.121   9.018  11.635  1.00  0.00     0.171 C 
HETATM   33  O5  UNL     1       7.986   9.266  12.457  1.00  0.00    -0.646 OA
BRANCH  32  34
HETATM   34  O6  UNL     1       7.142   9.586  10.417  1.00  0.00    -0.773 OA
HETATM   35  H44 UNL     1       7.936  10.159  10.444  1.00  0.00     0.167 HD
ENDBRANCH  32  34
ENDBRANCH  30  32
ENDBRANCH  28  29
BRANCH  28  36
HETATM   36  O1  UNL     1       4.587   5.649   9.727  1.00  0.00    -0.392 OA
HETATM   37  H6  UNL     1       5.032   6.025   8.948  1.00  0.00     0.210 HD
ENDBRANCH  28  36
ENDBRANCH  27  28
ENDBRANCH  25  27
ENDBRANCH   1  25
BRANCH   3  38
HETATM   38  O2  UNL     1       2.340   6.317  15.018  1.00  0.00    -0.394 OA
HETATM   39  H17 UNL     1       2.096   5.385  14.885  1.00  0.00     0.210 HD
ENDBRANCH   3  38
TORSDOF 8
ENDMDL
