MODEL 1
REMARK minimizedAffinity -8.32990932
REMARK  14 active torsions:
REMARK  status: ('A' for Active; 'I' for Inactive)
REMARK    1  A    between atoms: O1_2  and  C2_3 
REMARK    2  A    between atoms: C2_3  and  C3_4 
REMARK    3  A    between atoms: C2_3  and  C24_30 
REMARK    4  A    between atoms: C3_4  and  C5_6 
REMARK    5  A    between atoms: C6_8  and  C8_10 
REMARK    6  A    between atoms: C8_10  and  C9_11 
REMARK    7  A    between atoms: C9_11  and  O3_13 
REMARK    8  A    between atoms: C9_11  and  C11_14 
REMARK    9  A    between atoms: C12_15  and  C13_16 
REMARK   10  A    between atoms: C14_17  and  C16_19 
REMARK   11  A    between atoms: C17_21  and  C18_22 
REMARK   12  A    between atoms: C18_22  and  C19_23 
REMARK   13  A    between atoms: C19_23  and  O6_25 
REMARK   14  A    between atoms: C24_30  and  O7_32 
ROOT
HETATM    1  C9  UNL     1       0.574   6.012  12.850  1.00  0.00     0.075 C 
HETATM    2  C10 UNL     1       1.184   5.240  11.675  1.00  0.00     0.050 C 
ENDROOT
BRANCH   1   3
HETATM    3  C8  UNL     1       0.607   7.547  12.649  1.00  0.00     0.082 C 
BRANCH   3   4
HETATM    4  C6  UNL     1       1.414   8.029  11.457  1.00  0.00     0.087 A 
HETATM    5  C5  UNL     1       2.931   7.851  11.478  1.00  0.00     0.163 A 
HETATM    6  O2  UNL     1       2.314   9.106  11.789  1.00  0.00    -0.369 OA
HETATM    7  C7  UNL     1       0.667   8.302  10.181  1.00  0.00     0.049 C 
BRANCH   5   8
HETATM    8  C3  UNL     1       3.777   7.854  10.233  1.00  0.00     0.045 C 
HETATM    9  C4  UNL     1       3.622   6.500   9.523  1.00  0.00     0.015 C 
BRANCH   8  10
HETATM   10  C2  UNL     1       5.273   8.139  10.546  1.00  0.00     0.155 C 
BRANCH  10  11
HETATM   11  O1  UNL     1       5.383   9.548  10.830  1.00  0.00    -0.388 OA
HETATM   12  C1  UNL     1       6.690  10.064  10.611  1.00  0.00     0.202 C 
ENDBRANCH  10  11
BRANCH  10  13
HETATM   13  C24 UNL     1       5.823   7.311  11.747  1.00  0.00     0.143 C 
HETATM   14  C25 UNL     1       5.266   7.769  13.089  1.00  0.00     0.042 C 
BRANCH  13  15
HETATM   15  O7  UNL     1       5.537   5.916  11.627  1.00  0.00    -0.393 OA
HETATM   16  H42 UNL     1       6.050   5.591  10.864  1.00  0.00     0.210 HD
ENDBRANCH  13  15
ENDBRANCH  10  13
ENDBRANCH   8  10
ENDBRANCH   5   8
ENDBRANCH   3   4
ENDBRANCH   1   3
BRANCH   1  17
HETATM   17  O3  UNL     1       1.350   5.682  14.010  1.00  0.00    -0.386 OA
HETATM   18  H18 UNL     1       1.162   4.750  14.220  1.00  0.00     0.211 HD
ENDBRANCH   1  17
BRANCH   1  19
HETATM   19  C11 UNL     1      -0.848   5.602  13.186  1.00  0.00     0.010 C 
HETATM   20  C12 UNL     1      -1.755   5.045  12.365  1.00  0.00    -0.001 C 
BRANCH  20  21
HETATM   21  C13 UNL     1      -3.073   4.655  12.816  1.00  0.00     0.005 C 
HETATM   22  C14 UNL     1      -4.035   4.039  12.098  1.00  0.00    -0.055 C 
HETATM   23  C15 UNL     1      -3.926   3.666  10.641  1.00  0.00     0.046 C 
BRANCH  22  24
HETATM   24  C16 UNL     1      -5.351   3.624  12.749  1.00  0.00     0.154 C 
HETATM   25  O4  UNL     1      -6.072   4.827  13.065  1.00  0.00    -0.375 OA
HETATM   26  C17 UNL     1      -7.259   4.587  13.832  1.00  0.00     0.132 C 
HETATM   27  C20 UNL     1      -8.229   3.738  13.004  1.00  0.00     0.033 C 
HETATM   28  C21 UNL     1      -7.566   2.437  12.565  1.00  0.00     0.009 C 
HETATM   29  C22 UNL     1      -6.227   2.710  11.862  1.00  0.00     0.015 C 
HETATM   30  C23 UNL     1      -5.549   1.385  11.511  1.00  0.00     0.012 C 
BRANCH  26  31
HETATM   31  C18 UNL     1      -7.850   5.949  14.187  1.00  0.00     0.141 C 
BRANCH  31  32
HETATM   32  C19 UNL     1      -8.059   6.098  15.664  1.00  0.00     0.141 C 
HETATM   33  O5  UNL     1      -7.206   6.277  16.516  1.00  0.00    -0.650 OA
BRANCH  32  34
HETATM   34  O6  UNL     1      -9.363   6.043  16.002  1.00  0.00    -0.776 OA
HETATM   35  H29 UNL     1      -9.368   6.166  16.974  1.00  0.00     0.167 HD
ENDBRANCH  32  34
ENDBRANCH  31  32
ENDBRANCH  26  31
ENDBRANCH  22  24
ENDBRANCH  20  21
ENDBRANCH   1  19
TORSDOF 14
ENDMDL
