MODEL 1
REMARK minimizedAffinity -7.99277782
REMARK CNNscore 0.475442648
REMARK CNNaffinity 6.43983889
REMARK  13 active torsions:
REMARK  status: ('A' for Active; 'I' for Inactive)
REMARK    1  A    between atoms: C3_3  and  O1_4 
REMARK    2  A    between atoms: N1_14  and  O2_16 
REMARK    3  A    between atoms: O2_16  and  C13_17 
REMARK    4  A    between atoms: C13_17  and  C14_18 
REMARK       I    between atoms: C14_18  and  N2_20 
REMARK    5  A    between atoms: N2_20  and  C15_21 
REMARK    6  A    between atoms: C15_21  and  C16_22 
REMARK    7  A    between atoms: C15_21  and  C21_33 
REMARK       I    between atoms: C16_22  and  N3_24 
REMARK    8  A    between atoms: N3_24  and  C17_25 
REMARK    9  A    between atoms: C17_25  and  C18_26 
REMARK   10  A    between atoms: C17_25  and  C20_30 
REMARK   11  A    between atoms: C18_26  and  C19_27 
REMARK   12  A    between atoms: C19_27  and  O6_29 
REMARK   13  A    between atoms: C20_30  and  O8_32 
ROOT
HETATM    1  C1  UNL     1       3.041   5.107   7.848  1.00  0.00     0.015 C 
HETATM    2  C2  UNL     1       2.861   6.170   8.382  1.00  0.00    -0.078 C 
HETATM    3  C3  UNL     1       2.633   7.481   9.033  1.00  0.00     0.128 C 
HETATM    4  C4  UNL     1       1.145   7.849   8.940  1.00  0.00     0.052 C 
HETATM    5  C5  UNL     1       0.523   7.443  10.282  1.00  0.00     0.010 C 
HETATM    6  C6  UNL     1       1.650   6.801  11.126  1.00  0.00     0.002 C 
HETATM    7  C7  UNL     1       1.482   6.839  12.673  1.00  0.00    -0.004 C 
HETATM    8  C8  UNL     1      -0.004   6.860  13.070  1.00  0.00     0.010 C 
HETATM    9  C9  UNL     1      -0.202   6.796  14.570  1.00  0.00     0.035 C 
HETATM   10  C10 UNL     1       0.482   7.955  15.243  1.00  0.00    -0.069 C 
HETATM   11  C11 UNL     1      -0.197   8.703  16.130  1.00  0.00     0.030 C 
HETATM   12  C12 UNL     1       0.471   9.734  16.969  1.00  0.00     0.032 C 
HETATM   13  N1  UNL     1      -0.263  10.399  17.814  1.00  0.00    -0.271 N 
ATOM     14  H1  UNL     1      -1.272  10.286  17.911  1.00  0.00     0.194 HD
HETATM   15  C24 UNL     1       1.973   9.885  16.835  1.00  0.00     0.060 C 
HETATM   16  C25 UNL     1       2.409   9.558  15.413  1.00  0.00     0.020 C 
HETATM   17  C26 UNL     1       1.961   8.154  14.920  1.00  0.00    -0.016 C 
HETATM   18  C27 UNL     1       2.742   7.078  15.726  1.00  0.00     0.020 C 
HETATM   19  C28 UNL     1       2.316   7.950  13.383  1.00  0.00     0.002 C 
HETATM   20  C29 UNL     1       2.351   9.197  12.489  1.00  0.00     0.007 C 
HETATM   21  C30 UNL     1       3.029   8.939  11.128  1.00  0.00     0.014 C 
HETATM   22  C31 UNL     1       2.918   7.485  10.573  1.00  0.00     0.003 C 
HETATM   23  C32 UNL     1       4.214   6.712  10.899  1.00  0.00     0.020 C 
ENDROOT
BRANCH   3  24
HETATM   24  O1  UNL     1       3.427   8.450   8.362  1.00  0.00    -0.377 OA
HETATM   25  H2  UNL     1       3.239   8.360   7.412  1.00  0.00     0.211 HD
ENDBRANCH   3  24
BRANCH  13  26
HETATM   26  O2  UNL     1       0.508  11.288  18.574  1.00  0.00    -0.271 OA
BRANCH  26  27
HETATM   27  C13 UNL     1       0.413  10.926  19.947  1.00  0.00     0.303 C 
BRANCH  27  28
HETATM   28  C14 UNL     1       1.803  10.812  20.565  1.00  0.00     0.244 C 
HETATM   29  O3  UNL     1       2.640  10.008  20.162  1.00  0.00    -0.271 OA
HETATM   30  N2  UNL     1       2.024  11.651  21.641  1.00  0.00    -0.346 N 
HETATM   31  H16 UNL     1       1.179  11.995  22.088  1.00  0.00     0.163 HD
BRANCH  30  32
HETATM   32  C15 UNL     1       3.192  11.477  22.495  1.00  0.00     0.180 C 
BRANCH  32  33
HETATM   33  C16 UNL     1       4.325  12.394  21.976  1.00  0.00     0.241 C 
HETATM   34  O4  UNL     1       4.438  12.703  20.791  1.00  0.00    -0.271 OA
HETATM   35  N3  UNL     1       5.231  12.781  22.946  1.00  0.00    -0.344 N 
HETATM   36  H18 UNL     1       4.849  12.829  23.884  1.00  0.00     0.163 HD
BRANCH  35  37
HETATM   37  C17 UNL     1       6.230  13.823  22.645  1.00  0.00     0.192 C 
BRANCH  37  38
HETATM   38  C18 UNL     1       7.557  13.458  23.293  1.00  0.00     0.146 C 
BRANCH  38  39
HETATM   39  C19 UNL     1       8.190  12.253  22.662  1.00  0.00     0.141 C 
HETATM   40  O5  UNL     1       8.891  11.440  23.241  1.00  0.00    -0.650 OA
BRANCH  39  41
HETATM   41  O6  UNL     1       7.852  12.079  21.373  1.00  0.00    -0.776 OA
HETATM   42  H22 UNL     1       8.339  11.270  21.101  1.00  0.00     0.167 HD
ENDBRANCH  39  41
ENDBRANCH  38  39
ENDBRANCH  37  38
BRANCH  37  43
HETATM   43  C20 UNL     1       5.750  15.171  23.198  1.00  0.00     0.164 C 
HETATM   44  O7  UNL     1       4.589  15.513  23.363  1.00  0.00    -0.648 OA
BRANCH  43  45
HETATM   45  O8  UNL     1       6.754  16.051  23.420  1.00  0.00    -0.775 OA
HETATM   46  H23 UNL     1       6.306  16.842  23.793  1.00  0.00     0.167 HD
ENDBRANCH  43  45
ENDBRANCH  37  43
ENDBRANCH  35  37
ENDBRANCH  32  33
BRANCH  32  47
HETATM   47  C21 UNL     1       3.657  10.006  22.576  1.00  0.00     0.009 C 
HETATM   48  C22 UNL     1       5.074   9.913  23.149  1.00  0.00     0.012 C 
HETATM   49  C23 UNL     1       2.711   9.110  23.386  1.00  0.00     0.012 C 
ENDBRANCH  32  47
ENDBRANCH  30  32
ENDBRANCH  27  28
ENDBRANCH  26  27
ENDBRANCH  13  26
TORSDOF 13
ENDMDL
