MODEL 1
REMARK minimizedAffinity -7.77944469
REMARK CNNscore 0.474582851
REMARK CNNaffinity 6.47581148
REMARK  13 active torsions:
REMARK  status: ('A' for Active; 'I' for Inactive)
REMARK    1  A    between atoms: C3_3  and  O1_4 
REMARK    2  A    between atoms: N1_14  and  O2_16 
REMARK    3  A    between atoms: O2_16  and  C13_17 
REMARK    4  A    between atoms: C13_17  and  C14_18 
REMARK       I    between atoms: C14_18  and  N2_20 
REMARK    5  A    between atoms: N2_20  and  C15_21 
REMARK    6  A    between atoms: C15_21  and  C16_22 
REMARK    7  A    between atoms: C15_21  and  C21_32 
REMARK       I    between atoms: C16_22  and  N3_24 
REMARK    8  A    between atoms: N3_24  and  C17_25 
REMARK    9  A    between atoms: C17_25  and  C18_26 
REMARK   10  A    between atoms: C17_25  and  C19_28 
REMARK   11  A    between atoms: C18_26  and  S1_27 
REMARK   12  A    between atoms: C19_28  and  C20_29 
REMARK   13  A    between atoms: C20_29  and  O6_31 
ROOT
HETATM    1  C1  UNL     1       1.416  54.734 -22.890  1.00  0.00     0.015 C 
HETATM    2  C2  UNL     1       0.830  53.974 -23.613  1.00  0.00    -0.078 C 
HETATM    3  C3  UNL     1       0.101  53.053 -24.503  1.00  0.00     0.128 C 
HETATM    4  C4  UNL     1       1.040  52.369 -25.502  1.00  0.00     0.052 C 
HETATM    5  C5  UNL     1       0.370  51.038 -25.864  1.00  0.00     0.010 C 
HETATM    6  C6  UNL     1      -0.854  50.855 -24.930  1.00  0.00     0.002 C 
HETATM    7  C7  UNL     1      -2.185  51.047 -25.700  1.00  0.00    -0.004 C 
HETATM    8  C8  UNL     1      -2.459  49.923 -26.719  1.00  0.00     0.010 C 
HETATM    9  C9  UNL     1      -2.949  48.640 -26.069  1.00  0.00     0.035 C 
HETATM   10  C10 UNL     1      -4.206  48.884 -25.276  1.00  0.00    -0.069 C 
HETATM   11  C11 UNL     1      -5.293  48.126 -25.505  1.00  0.00     0.030 C 
HETATM   12  C12 UNL     1      -6.525  48.240 -24.684  1.00  0.00     0.032 C 
HETATM   13  N1  UNL     1      -7.515  47.439 -24.965  1.00  0.00    -0.271 N 
ATOM     14  H1  UNL     1      -7.507  46.760 -25.726  1.00  0.00     0.194 HD
HETATM   15  C24 UNL     1      -6.523  49.226 -23.536  1.00  0.00     0.060 C 
HETATM   16  C25 UNL     1      -5.597  50.401 -23.825  1.00  0.00     0.020 C 
HETATM   17  C26 UNL     1      -4.143  49.990 -24.220  1.00  0.00    -0.016 C 
HETATM   18  C27 UNL     1      -3.453  49.398 -22.975  1.00  0.00     0.020 C 
HETATM   19  C28 UNL     1      -3.428  51.278 -24.805  1.00  0.00     0.002 C 
HETATM   20  C29 UNL     1      -3.146  52.408 -23.801  1.00  0.00     0.007 C 
HETATM   21  C30 UNL     1      -1.863  52.257 -22.991  1.00  0.00     0.014 C 
HETATM   22  C31 UNL     1      -0.592  51.862 -23.771  1.00  0.00     0.003 C 
HETATM   23  C32 UNL     1       0.377  51.191 -22.753  1.00  0.00     0.020 C 
ENDROOT
BRANCH   3  24
HETATM   24  O1  UNL     1      -0.844  53.820 -25.242  1.00  0.00    -0.377 OA
HETATM   25  H2  UNL     1      -0.366  54.574 -25.624  1.00  0.00     0.211 HD
ENDBRANCH   3  24
BRANCH  13  26
HETATM   26  O2  UNL     1      -8.593  47.629 -24.088  1.00  0.00    -0.271 OA
BRANCH  26  27
HETATM   27  C13 UNL     1      -9.271  46.395 -23.927  1.00  0.00     0.303 C 
BRANCH  27  28
HETATM   28  C14 UNL     1     -10.442  46.531 -22.954  1.00  0.00     0.244 C 
HETATM   29  O3  UNL     1     -10.408  47.200 -21.924  1.00  0.00    -0.271 OA
HETATM   30  N2  UNL     1     -11.576  45.847 -23.353  1.00  0.00    -0.346 N 
HETATM   31  H16 UNL     1     -11.489  45.151 -24.087  1.00  0.00     0.163 HD
BRANCH  30  32
HETATM   32  C15 UNL     1     -12.743  45.720 -22.462  1.00  0.00     0.180 C 
BRANCH  32  33
HETATM   33  C16 UNL     1     -13.972  46.303 -23.200  1.00  0.00     0.241 C 
HETATM   34  O4  UNL     1     -14.543  47.343 -22.890  1.00  0.00    -0.271 OA
HETATM   35  N3  UNL     1     -14.314  45.579 -24.334  1.00  0.00    -0.353 N 
HETATM   36  H18 UNL     1     -13.812  44.710 -24.477  1.00  0.00     0.163 HD
BRANCH  35  37
HETATM   37  C17 UNL     1     -15.572  45.814 -25.054  1.00  0.00     0.103 C 
BRANCH  37  38
HETATM   38  C18 UNL     1     -15.322  45.961 -26.576  1.00  0.00     0.096 C 
BRANCH  38  39
HETATM   39  S1  UNL     1     -16.329  44.842 -27.609  1.00  0.00    -0.180 SA
HETATM   40  H22 UNL     1     -17.508  45.120 -27.021  1.00  0.00     0.101 HD
ENDBRANCH  38  39
ENDBRANCH  37  38
BRANCH  37  41
HETATM   41  C19 UNL     1     -16.246  47.067 -24.481  1.00  0.00     0.136 C 
BRANCH  41  42
HETATM   42  C20 UNL     1     -17.666  46.805 -24.067  1.00  0.00     0.141 C 
HETATM   43  O5  UNL     1     -18.055  46.324 -23.018  1.00  0.00    -0.650 OA
BRANCH  42  44
HETATM   44  O6  UNL     1     -18.544  47.176 -25.020  1.00  0.00    -0.776 OA
HETATM   45  H25 UNL     1     -19.423  46.975 -24.635  1.00  0.00     0.167 HD
ENDBRANCH  42  44
ENDBRANCH  41  42
ENDBRANCH  37  41
ENDBRANCH  35  37
ENDBRANCH  32  33
BRANCH  32  46
HETATM   46  C21 UNL     1     -12.899  44.267 -21.955  1.00  0.00     0.009 C 
HETATM   47  C22 UNL     1     -13.460  44.172 -20.532  1.00  0.00     0.012 C 
HETATM   48  C23 UNL     1     -11.596  43.471 -22.076  1.00  0.00     0.012 C 
ENDBRANCH  32  46
ENDBRANCH  30  32
ENDBRANCH  27  28
ENDBRANCH  26  27
ENDBRANCH  13  26
TORSDOF 13
ENDMDL
