MODEL 1
REMARK minimizedAffinity -8.38515186
REMARK  8 active torsions:
REMARK  status: ('A' for Active; 'I' for Inactive)
REMARK    1  A    between atoms: C4_4  and  C5_5 
REMARK    2  A    between atoms: C5_5  and  C6_6 
REMARK    3  A    between atoms: C6_6  and  C7_7 
REMARK    4  A    between atoms: C7_7  and  C9_9 
REMARK    5  A    between atoms: C21_21  and  C22_22 
REMARK    6  A    between atoms: C22_22  and  C23_23 
REMARK    7  A    between atoms: C23_23  and  C24_24 
REMARK    8  A    between atoms: C24_24  and  O1_25 
ROOT
HETATM    1  C9  UNL     1      -5.665   6.758  14.624  1.00  0.00    -0.002 C 
HETATM    2  C10 UNL     1      -6.049   7.894  13.622  1.00  0.00     0.006 C 
HETATM    3  C11 UNL     1      -4.728   8.453  13.043  1.00  0.00     0.011 C 
HETATM    4  C12 UNL     1      -3.635   7.891  13.973  1.00  0.00    -0.032 C 
HETATM    5  C13 UNL     1      -3.659   8.816  15.237  1.00  0.00     0.016 C 
HETATM    6  C14 UNL     1      -2.211   7.797  13.360  1.00  0.00     0.003 C 
HETATM    7  C15 UNL     1      -1.627   9.131  12.840  1.00  0.00     0.010 C 
HETATM    8  C16 UNL     1      -0.148   9.027  12.453  1.00  0.00     0.035 C 
HETATM    9  C17 UNL     1       0.227   7.611  12.076  1.00  0.00    -0.073 C 
HETATM   10  C18 UNL     1       0.622   7.269  10.822  1.00  0.00    -0.085 C 
HETATM   11  C19 UNL     1       0.979   5.870  10.380  1.00  0.00     0.043 C 
HETATM   12  C20 UNL     1       0.744   8.285   9.709  1.00  0.00     0.043 C 
HETATM   13  C21 UNL     1       0.039   6.596  13.229  1.00  0.00     0.023 C 
HETATM   14  C25 UNL     1      -1.165   6.982  14.225  1.00  0.00    -0.032 C 
HETATM   15  C26 UNL     1      -0.655   7.793  15.445  1.00  0.00     0.016 C 
HETATM   16  C27 UNL     1      -1.816   5.668  14.796  1.00  0.00     0.011 C 
HETATM   17  C28 UNL     1      -3.286   5.756  15.268  1.00  0.00     0.011 C 
HETATM   18  C29 UNL     1      -4.193   6.430  14.224  1.00  0.00    -0.032 C 
HETATM   19  C30 UNL     1      -4.202   5.512  12.963  1.00  0.00     0.016 C 
ENDROOT
BRANCH   1  20
HETATM   20  C7  UNL     1      -6.773   5.674  14.803  1.00  0.00    -0.014 C 
HETATM   21  C8  UNL     1      -8.223   6.139  14.633  1.00  0.00     0.010 C 
BRANCH  20  22
HETATM   22  C6  UNL     1      -6.470   4.420  13.944  1.00  0.00     0.008 C 
BRANCH  22  23
HETATM   23  C5  UNL     1      -7.688   3.543  13.606  1.00  0.00     0.028 C 
BRANCH  23  24
HETATM   24  C4  UNL     1      -7.342   2.285  12.859  1.00  0.00    -0.025 C 
HETATM   25  C2  UNL     1      -6.535   2.152  11.788  1.00  0.00    -0.091 C 
HETATM   26  C1  UNL     1      -6.271   0.794  11.192  1.00  0.00     0.042 C 
HETATM   27  C3  UNL     1      -5.825   3.282  11.096  1.00  0.00     0.042 C 
ENDBRANCH  23  24
ENDBRANCH  22  23
ENDBRANCH  20  22
ENDBRANCH   1  20
BRANCH  13  28
HETATM   28  C22 UNL     1       1.433   6.320  13.854  1.00  0.00     0.012 C 
BRANCH  28  29
HETATM   29  C23 UNL     1       2.395   7.514  13.827  1.00  0.00     0.027 C 
BRANCH  29  30
HETATM   30  C24 UNL     1       3.063   7.760  15.179  1.00  0.00     0.164 C 
BRANCH  30  31
HETATM   31  O1  UNL     1       3.369   6.534  15.829  1.00  0.00    -0.401 OA
HETATM   32  H42 UNL     1       4.141   6.149  15.381  1.00  0.00     0.209 HD
ENDBRANCH  30  31
ENDBRANCH  29  30
ENDBRANCH  28  29
ENDBRANCH  13  28
TORSDOF 8
ENDMDL
