MODEL 1
REMARK minimizedAffinity -9.54679012
REMARK  13 active torsions:
REMARK  status: ('A' for Active; 'I' for Inactive)
REMARK    1  A    between atoms: C2_2  and  C3_3 
REMARK    2  A    between atoms: C2_2  and  C9_11 
REMARK    3  A    between atoms: C3_3  and  C4_4 
REMARK    4  A    between atoms: C4_4  and  C5_5 
REMARK    5  A    between atoms: C5_5  and  C6_6 
REMARK    6  A    between atoms: C6_6  and  O1_8 
REMARK    7  A    between atoms: C6_6  and  C8_9 
REMARK    8  A    between atoms: C8_9  and  O2_10 
REMARK    9  A    between atoms: C10_12  and  O3_13 
REMARK   10  A    between atoms: C11_14  and  O4_15 
REMARK   11  A    between atoms: C13_17  and  O5_18 
REMARK   12  A    between atoms: C15_20  and  O6_21 
REMARK   13  A    between atoms: C18_24  and  O7_25 
ROOT
HETATM    1  C9  UNL     1      -6.373   6.987  13.993  1.00  0.00     0.029 C 
HETATM    2  C10 UNL     1      -6.780   8.272  14.771  1.00  0.00     0.152 C 
HETATM    3  C11 UNL     1      -5.508   8.774  15.490  1.00  0.00     0.155 C 
HETATM    4  C12 UNL     1      -4.378   8.171  14.649  1.00  0.00     0.060 C 
HETATM    5  C13 UNL     1      -2.913   8.278  15.163  1.00  0.00     0.071 C 
HETATM    6  C14 UNL     1      -2.358   9.703  14.931  1.00  0.00     0.071 C 
HETATM    7  C15 UNL     1      -1.536   9.839  13.657  1.00  0.00     0.126 C 
HETATM    8  C16 UNL     1      -0.276   8.954  13.676  1.00  0.00     0.025 C 
HETATM    9  C17 UNL     1       0.250   8.753  12.237  1.00  0.00     0.039 C 
HETATM   10  C18 UNL     1       1.614   8.057  12.219  1.00  0.00     0.118 C 
HETATM   11  C19 UNL     1       1.763   6.984  13.299  1.00  0.00     0.032 C 
HETATM   12  C20 UNL     1       0.403   6.467  13.764  1.00  0.00     0.012 C 
HETATM   13  C21 UNL     1      -0.473   7.587  14.418  1.00  0.00    -0.031 C 
HETATM   14  C22 UNL     1       0.074   7.738  15.874  1.00  0.00     0.016 C 
HETATM   15  C23 UNL     1      -1.999   7.167  14.505  1.00  0.00     0.029 C 
HETATM   16  C24 UNL     1      -2.616   6.682  13.169  1.00  0.00     0.009 C 
HETATM   17  C25 UNL     1      -4.026   6.080  13.307  1.00  0.00     0.011 C 
HETATM   18  C26 UNL     1      -4.884   6.714  14.421  1.00  0.00    -0.029 C 
HETATM   19  C27 UNL     1      -4.812   5.828  15.683  1.00  0.00     0.016 C 
ENDROOT
BRANCH   1  20
HETATM   20  C2  UNL     1      -7.448   5.861  13.916  1.00  0.00    -0.011 C 
HETATM   21  C1  UNL     1      -7.560   4.914  15.116  1.00  0.00     0.010 C 
BRANCH  20  22
HETATM   22  C3  UNL     1      -7.315   5.055  12.601  1.00  0.00     0.005 C 
BRANCH  22  23
HETATM   23  C4  UNL     1      -6.975   3.563  12.746  1.00  0.00     0.003 C 
BRANCH  23  24
HETATM   24  C5  UNL     1      -5.495   3.244  12.499  1.00  0.00     0.040 C 
BRANCH  24  25
HETATM   25  C6  UNL     1      -5.187   2.384  11.251  1.00  0.00     0.075 C 
HETATM   26  C7  UNL     1      -6.156   1.197  11.215  1.00  0.00     0.048 C 
BRANCH  25  27
HETATM   27  O1  UNL     1      -3.862   1.846  11.372  1.00  0.00    -0.388 OA
HETATM   28  H14 UNL     1      -3.273   2.553  11.039  1.00  0.00     0.210 HD
ENDBRANCH  25  27
BRANCH  25  29
HETATM   29  C8  UNL     1      -5.273   3.157   9.919  1.00  0.00     0.201 C 
BRANCH  29  30
HETATM   30  O2  UNL     1      -3.968   3.560   9.497  1.00  0.00    -0.398 OA
HETATM   31  H17 UNL     1      -4.079   4.024   8.648  1.00  0.00     0.209 HD
ENDBRANCH  29  30
ENDBRANCH  25  29
ENDBRANCH  24  25
ENDBRANCH  23  24
ENDBRANCH  22  23
ENDBRANCH  20  22
ENDBRANCH   1  20
BRANCH   2  32
HETATM   32  O3  UNL     1      -7.839   8.105  15.699  1.00  0.00    -0.393 OA
HETATM   33  H20 UNL     1      -7.996   8.984  16.091  1.00  0.00     0.210 HD
ENDBRANCH   2  32
BRANCH   3  34
HETATM   34  O4  UNL     1      -5.522  10.194  15.506  1.00  0.00    -0.392 OA
HETATM   35  H22 UNL     1      -4.919  10.493  16.207  1.00  0.00     0.210 HD
ENDBRANCH   3  34
BRANCH   5  36
HETATM   36  O5  UNL     1      -2.916   8.036  16.577  1.00  0.00    -0.389 OA
HETATM   37  H24 UNL     1      -3.114   8.864  17.046  1.00  0.00     0.210 HD
ENDBRANCH   5  36
BRANCH   7  38
HETATM   38  O6  UNL     1      -1.165  11.217  13.548  1.00  0.00    -0.395 OA
HETATM   39  H28 UNL     1      -0.521  11.307  12.825  1.00  0.00     0.210 HD
ENDBRANCH   7  38
BRANCH  10  40
HETATM   40  O7  UNL     1       2.627   9.043  12.399  1.00  0.00    -0.396 OA
HETATM   41  H33 UNL     1       3.487   8.593  12.343  1.00  0.00     0.210 HD
ENDBRANCH  10  40
TORSDOF 13
ENDMDL
