MODEL 1
REMARK minimizedAffinity -9.36878777
REMARK  9 active torsions:
REMARK  status: ('A' for Active; 'I' for Inactive)
REMARK    1  A    between atoms: C3_3  and  O1_4 
REMARK    2  A    between atoms: N1_14  and  O2_16 
REMARK    3  A    between atoms: O2_16  and  C13_17 
REMARK    4  A    between atoms: C13_17  and  C14_18 
REMARK       I    between atoms: C14_18  and  N2_20 
REMARK    5  A    between atoms: N2_20  and  C15_21 
REMARK    6  A    between atoms: C15_21  and  C16_22 
REMARK    7  A    between atoms: C15_21  and  C17_25 
REMARK    8  A    between atoms: C16_22  and  O5_24 
REMARK    9  A    between atoms: C17_25  and  C19_27 
ROOT
HETATM    1  C1  UNL     1      -7.957   4.998  15.878  1.00  0.00     0.015 C 
HETATM    2  C2  UNL     1      -7.293   5.639  15.110  1.00  0.00    -0.078 C 
HETATM    3  C3  UNL     1      -6.495   6.412  14.145  1.00  0.00     0.128 C 
HETATM    4  C4  UNL     1      -6.634   7.940  14.348  1.00  0.00     0.052 C 
HETATM    5  C5  UNL     1      -5.269   8.555  13.968  1.00  0.00     0.010 C 
HETATM    6  C6  UNL     1      -4.465   7.387  13.402  1.00  0.00     0.002 C 
HETATM    7  C7  UNL     1      -2.936   7.500  13.345  1.00  0.00    -0.004 C 
HETATM    8  C8  UNL     1      -2.495   8.728  12.537  1.00  0.00     0.010 C 
HETATM    9  C9  UNL     1      -0.977   8.816  12.452  1.00  0.00     0.035 C 
HETATM   10  C10 UNL     1      -0.367   7.552  11.892  1.00  0.00    -0.069 C 
HETATM   11  C11 UNL     1       0.510   7.633  10.875  1.00  0.00     0.030 C 
HETATM   12  C12 UNL     1       1.232   6.441  10.361  1.00  0.00     0.032 C 
HETATM   13  N1  UNL     1       2.009   6.597   9.328  1.00  0.00    -0.271 N 
ATOM     14  H1  UNL     1       2.126   7.475   8.823  1.00  0.00     0.194 HD
HETATM   15  C21 UNL     1       1.059   5.140  11.118  1.00  0.00     0.060 C 
HETATM   16  C22 UNL     1      -0.358   5.032  11.664  1.00  0.00     0.020 C 
HETATM   17  C23 UNL     1      -0.788   6.233  12.553  1.00  0.00    -0.016 C 
HETATM   18  C24 UNL     1      -0.075   6.125  13.919  1.00  0.00     0.020 C 
HETATM   19  C25 UNL     1      -2.358   6.200  12.703  1.00  0.00     0.002 C 
HETATM   20  C26 UNL     1      -2.897   4.923  13.402  1.00  0.00     0.007 C 
HETATM   21  C27 UNL     1      -4.430   4.903  13.541  1.00  0.00     0.014 C 
HETATM   22  C28 UNL     1      -4.959   6.174  14.227  1.00  0.00     0.003 C 
HETATM   23  C29 UNL     1      -4.475   6.205  15.706  1.00  0.00     0.020 C 
ENDROOT
BRANCH   3  24
HETATM   24  O1  UNL     1      -6.969   6.101  12.831  1.00  0.00    -0.377 OA
HETATM   25  H2  UNL     1      -7.939   6.182  12.855  1.00  0.00     0.211 HD
ENDBRANCH   3  24
BRANCH  13  26
HETATM   26  O2  UNL     1       2.667   5.402   9.000  1.00  0.00    -0.271 OA
BRANCH  26  27
HETATM   27  C13 UNL     1       3.715   5.181   9.929  1.00  0.00     0.303 C 
BRANCH  27  28
HETATM   28  C14 UNL     1       4.321   6.508  10.382  1.00  0.00     0.244 C 
HETATM   29  O3  UNL     1       4.588   7.436   9.625  1.00  0.00    -0.271 OA
HETATM   30  N2  UNL     1       4.535   6.577  11.751  1.00  0.00    -0.344 N 
HETATM   31  H16 UNL     1       4.644   5.689  12.227  1.00  0.00     0.163 HD
BRANCH  30  32
HETATM   32  C15 UNL     1       5.273   7.705  12.327  1.00  0.00     0.186 C 
BRANCH  32  33
HETATM   33  C16 UNL     1       6.577   7.156  12.914  1.00  0.00     0.163 C 
HETATM   34  O4  UNL     1       7.706   7.373  12.495  1.00  0.00    -0.648 OA
BRANCH  33  35
HETATM   35  O5  UNL     1       6.385   6.332  13.964  1.00  0.00    -0.775 OA
HETATM   36  H18 UNL     1       7.291   6.082  14.245  1.00  0.00     0.167 HD
ENDBRANCH  33  35
ENDBRANCH  32  33
BRANCH  32  37
HETATM   37  C17 UNL     1       4.475   8.473  13.408  1.00  0.00     0.014 C 
HETATM   38  C18 UNL     1       3.136   9.026  12.905  1.00  0.00     0.012 C 
BRANCH  37  39
HETATM   39  C19 UNL     1       5.315   9.564  14.110  1.00  0.00     0.002 C 
HETATM   40  C20 UNL     1       4.809  10.039  15.465  1.00  0.00     0.005 C 
ENDBRANCH  37  39
ENDBRANCH  32  37
ENDBRANCH  30  32
ENDBRANCH  27  28
ENDBRANCH  26  27
ENDBRANCH  13  26
TORSDOF 9
ENDMDL
