MODEL 1
REMARK minimizedAffinity -8.77871132
REMARK  12 active torsions:
REMARK  status: ('A' for Active; 'I' for Inactive)
REMARK    1  A    between atoms: C2_2  and  C23_27 
REMARK    2  A    between atoms: C3_3  and  C4_4 
REMARK    3  A    between atoms: C4_4  and  C5_5 
REMARK    4  A    between atoms: C13_13  and  C14_14 
REMARK    5  A    between atoms: C14_14  and  C16_16 
REMARK    6  A    between atoms: C17_17  and  C18_18 
REMARK    7  A    between atoms: C18_18  and  O1_19 
REMARK    8  A    between atoms: C18_18  and  C19_20 
REMARK    9  A    between atoms: C20_21  and  C21_23 
REMARK   10  A    between atoms: C21_23  and  C22_24 
REMARK   11  A    between atoms: C22_24  and  O2_25 
REMARK   12  A    between atoms: C23_27  and  O4_29 
ROOT
HETATM    1  C5  UNL     1      -1.739  50.467 -21.484  1.00  0.00     0.225 C 
HETATM    2  C6  UNL     1      -2.120  49.849 -20.132  1.00  0.00     0.036 C 
HETATM    3  C7  UNL     1      -3.632  49.752 -19.987  1.00  0.00     0.005 C 
HETATM    4  C8  UNL     1      -4.234  49.023 -21.186  1.00  0.00     0.042 C 
HETATM    5  C9  UNL     1      -3.800  49.622 -22.560  1.00  0.00     0.162 C 
HETATM    6  C10 UNL     1      -4.489  50.976 -22.816  1.00  0.00     0.042 C 
HETATM    7  C11 UNL     1      -5.895  50.634 -23.302  1.00  0.00     0.003 C 
HETATM    8  C12 UNL     1      -5.851  49.192 -23.808  1.00  0.00     0.008 C 
HETATM    9  C13 UNL     1      -4.384  48.721 -23.703  1.00  0.00     0.031 C 
HETATM   10  N1  UNL     1      -2.335  49.704 -22.592  1.00  0.00     0.098 N 
HETATM   11  H35 UNL     1      -2.022  50.103 -23.474  1.00  0.00     0.317 HD
ENDROOT
BRANCH   9  12
HETATM   12  C14 UNL     1      -3.652  48.699 -25.086  1.00  0.00     0.010 C 
HETATM   13  C15 UNL     1      -4.622  48.226 -26.187  1.00  0.00     0.015 C 
BRANCH  12  14
HETATM   14  C16 UNL     1      -2.910  49.971 -25.449  1.00  0.00    -0.023 C 
HETATM   15  C17 UNL     1      -3.329  50.951 -26.270  1.00  0.00     0.005 C 
BRANCH  15  16
HETATM   16  C18 UNL     1      -2.534  52.177 -26.613  1.00  0.00     0.165 C 
BRANCH  16  17
HETATM   17  O1  UNL     1      -2.496  52.969 -25.443  1.00  0.00    -0.388 OA
HETATM   18  H28 UNL     1      -1.589  53.289 -25.319  1.00  0.00     0.210 HD
ENDBRANCH  16  17
BRANCH  16  19
HETATM   19  C19 UNL     1      -1.186  51.793 -27.174  1.00  0.00     0.028 C 
HETATM   20  C20 UNL     1      -0.127  52.510 -27.588  1.00  0.00     0.013 C 
HETATM   21 CL1  UNL     1      -0.083  54.239 -27.527  1.00  0.00    -0.089 Cl
BRANCH  20  22
HETATM   22  C21 UNL     1       1.145  51.868 -28.099  1.00  0.00     0.077 C 
BRANCH  22  23
HETATM   23  C22 UNL     1       2.180  51.632 -26.997  1.00  0.00     0.169 C 
BRANCH  23  24
HETATM   24  O2  UNL     1       3.478  52.059 -27.397  1.00  0.00    -0.401 OA
HETATM   25  H34 UNL     1       3.704  51.587 -28.220  1.00  0.00     0.209 HD
ENDBRANCH  23  24
ENDBRANCH  22  23
ENDBRANCH  20  22
ENDBRANCH  16  19
ENDBRANCH  15  16
ENDBRANCH  12  14
ENDBRANCH   9  12
BRANCH   1  26
HETATM   26  C4  UNL     1      -0.203  50.577 -21.646  1.00  0.00     0.063 C 
BRANCH  26  27
HETATM   27  C3  UNL     1       0.391  51.903 -21.244  1.00  0.00    -0.011 C 
HETATM   28  C2  UNL     1       0.791  52.912 -22.045  1.00  0.00     0.008 C 
HETATM   29  C1  UNL     1       0.688  52.948 -23.540  1.00  0.00     0.055 C 
BRANCH  28  30
HETATM   30  C23 UNL     1       1.377  54.098 -21.366  1.00  0.00     0.171 C 
HETATM   31  O3  UNL     1       1.453  54.292 -20.166  1.00  0.00    -0.646 OA
BRANCH  30  32
HETATM   32  O4  UNL     1       1.860  55.001 -22.238  1.00  0.00    -0.773 OA
HETATM   33  H36 UNL     1       2.203  55.708 -21.653  1.00  0.00     0.167 HD
ENDBRANCH  30  32
ENDBRANCH  28  30
ENDBRANCH  26  27
ENDBRANCH   1  26
TORSDOF 12
ENDMDL
