MODEL 1
REMARK minimizedAffinity -7.41267872
REMARK CNNscore 0.757514179
REMARK CNNaffinity 6.98424578
REMARK  4 active torsions:
REMARK  status: ('A' for Active; 'I' for Inactive)
REMARK    1  A    between atoms: C2_2  and  C4_4 
REMARK    2  A    between atoms: C4_4  and  C5_5 
REMARK    3  A    between atoms: C5_5  and  O1_6 
REMARK    4  A    between atoms: C8_9  and  C9_10 
ROOT
HETATM    1  C9  UNL     1       4.401  55.174  -7.533  1.00  0.00     0.001 C 
HETATM    2  C10 UNL     1       4.006  56.660  -7.608  1.00  0.00     0.007 C 
HETATM    3  C11 UNL     1       3.770  56.976  -9.089  1.00  0.00     0.011 C 
HETATM    4  C12 UNL     1       3.752  55.621  -9.836  1.00  0.00    -0.032 C 
HETATM    5  C13 UNL     1       4.219  55.850 -11.297  1.00  0.00     0.016 C 
HETATM    6  C14 UNL     1       2.298  54.998  -9.925  1.00  0.00     0.004 C 
HETATM    7  C15 UNL     1       1.259  55.311  -8.829  1.00  0.00     0.007 C 
HETATM    8  C16 UNL     1      -0.166  54.866  -9.228  1.00  0.00     0.007 C 
HETATM    9  C17 UNL     1      -0.248  53.890 -10.434  1.00  0.00     0.010 C 
HETATM   10  C18 UNL     1      -1.647  53.227 -10.608  1.00  0.00     0.018 C 
HETATM   11  C19 UNL     1      -1.767  52.543 -11.983  1.00  0.00     0.023 C 
HETATM   12  C20 UNL     1      -2.777  54.272 -10.518  1.00  0.00     0.023 C 
HETATM   13  C21 UNL     1      -1.869  52.167  -9.523  1.00  0.00     0.135 C 
HETATM   14  O2  UNL     1      -2.998  51.821  -9.174  1.00  0.00    -0.297 OA
HETATM   15  C22 UNL     1      -0.659  51.560  -8.858  1.00  0.00     0.080 C 
HETATM   16  C23 UNL     1       0.519  51.500  -9.812  1.00  0.00     0.018 C 
HETATM   17  C24 UNL     1       0.900  52.869 -10.354  1.00  0.00    -0.026 A 
HETATM   18  C25 UNL     1       1.946  52.895 -11.453  1.00  0.00     0.021 A 
HETATM   19  C26 UNL     1       2.299  53.473 -10.106  1.00  0.00    -0.027 A 
HETATM   20  C27 UNL     1       3.261  52.722  -9.215  1.00  0.00     0.011 C 
HETATM   21  C28 UNL     1       4.670  53.279  -9.292  1.00  0.00     0.011 C 
HETATM   22  C29 UNL     1       4.789  54.786  -8.996  1.00  0.00    -0.032 C 
HETATM   23  C30 UNL     1       6.259  55.161  -9.313  1.00  0.00     0.016 C 
ENDROOT
BRANCH   1  24
HETATM   24  C8  UNL     1       5.352  54.788  -6.365  1.00  0.00     0.014 C 
HETATM   25  C7  UNL     1       5.502  55.993  -5.412  1.00  0.00     0.010 C 
HETATM   26  C6  UNL     1       6.655  55.772  -4.441  1.00  0.00     0.041 C 
HETATM   27  C4  UNL     1       8.009  55.566  -5.172  1.00  0.00     0.085 C 
HETATM   28  O3  UNL     1       7.773  55.199  -6.554  1.00  0.00    -0.377 OA
HETATM   29  C31 UNL     1       6.736  54.240  -6.750  1.00  0.00     0.174 C 
BRANCH  27  30
HETATM   30  C2  UNL     1       8.865  54.468  -4.454  1.00  0.00     0.014 C 
HETATM   31  C1  UNL     1       9.507  54.955  -3.148  1.00  0.00     0.012 C 
HETATM   32  C3  UNL     1       8.096  53.167  -4.189  1.00  0.00     0.012 C 
ENDBRANCH  27  30
BRANCH  27  33
HETATM   33  C5  UNL     1       8.782  56.912  -5.260  1.00  0.00     0.202 C 
BRANCH  33  34
HETATM   34  O1  UNL     1      10.050  56.726  -5.894  1.00  0.00    -0.398 OA
HETATM   35  H10 UNL     1      10.440  55.957  -5.432  1.00  0.00     0.209 HD
ENDBRANCH  33  34
ENDBRANCH  27  33
ENDBRANCH   1  24
TORSDOF 4
ENDMDL
