MODEL 1
REMARK minimizedAffinity -8.09515953
REMARK CNNscore 0.571629763
REMARK CNNaffinity 7.33268309
REMARK  13 active torsions:
REMARK  status: ('A' for Active; 'I' for Inactive)
REMARK    1  A    between atoms: C2_2  and  C3_3 
REMARK    2  A    between atoms: C3_3  and  C5_5 
REMARK    3  A    between atoms: C5_5  and  N1_6 
REMARK    4  A    between atoms: C5_5  and  C31_39 
REMARK       I    between atoms: N1_6  and  C6_7 
REMARK    5  A    between atoms: C6_7  and  C7_9 
REMARK    6  A    between atoms: C7_9  and  C8_10 
REMARK    7  A    between atoms: C8_10  and  C9_11 
REMARK    8  A    between atoms: C9_11  and  O3_13 
REMARK    9  A    between atoms: O3_13  and  C10_14 
REMARK   10  A    between atoms: C10_14  and  C11_15 
REMARK   11  A    between atoms: C11_15  and  C12_17 
REMARK   12  A    between atoms: C12_17  and  O5_18 
REMARK   13  A    between atoms: C31_39  and  O9_41 
ROOT
HETATM    1  C12 UNL     1     -12.014   8.962  13.860  1.00  0.00     0.128 C 
HETATM    2  C13 UNL     1     -12.144   9.379  15.341  1.00  0.00     0.047 C 
HETATM    3  C14 UNL     1     -10.918   8.784  16.066  1.00  0.00     0.009 C 
HETATM    4  C15 UNL     1     -10.067   8.176  14.955  1.00  0.00     0.002 C 
HETATM    5  C16 UNL     1      -9.031   7.103  15.323  1.00  0.00     0.003 C 
HETATM    6  C17 UNL     1      -8.047   7.630  16.377  1.00  0.00     0.010 C 
HETATM    7  C18 UNL     1      -6.964   6.606  16.695  1.00  0.00     0.035 C 
HETATM    8  C19 UNL     1      -6.246   6.151  15.445  1.00  0.00    -0.067 C 
HETATM    9  C20 UNL     1      -4.904   6.221  15.390  1.00  0.00     0.053 C 
HETATM   10  C21 UNL     1      -4.151   5.716  14.221  1.00  0.00     0.149 C 
HETATM   11  O6  UNL     1      -2.956   5.969  14.109  1.00  0.00    -0.293 OA
HETATM   12  C22 UNL     1      -4.900   4.875  13.227  1.00  0.00     0.084 C 
HETATM   13  C23 UNL     1      -6.279   5.474  12.994  1.00  0.00     0.022 C 
HETATM   14  C24 UNL     1      -7.130   5.629  14.293  1.00  0.00    -0.009 C 
HETATM   15  C25 UNL     1      -7.683   4.248  14.709  1.00  0.00     0.021 C 
HETATM   16  C26 UNL     1      -8.267   6.682  14.033  1.00  0.00     0.072 C 
HETATM   17  C27 UNL     1      -9.275   6.318  12.924  1.00  0.00     0.133 C 
HETATM   18  O7  UNL     1      -9.202   5.290  12.252  1.00  0.00    -0.297 OA
HETATM   19  C28 UNL     1     -10.359   7.347  12.625  1.00  0.00     0.091 C 
HETATM   20  C29 UNL     1     -11.111   7.697  13.914  1.00  0.00     0.005 C 
HETATM   21  C30 UNL     1     -11.914   6.456  14.380  1.00  0.00     0.019 C 
ENDROOT
BRANCH   1  22
HETATM   22  C11 UNL     1     -13.319   8.809  13.060  1.00  0.00     0.185 C 
HETATM   23  O4  UNL     1     -13.371   9.272  11.912  1.00  0.00    -0.292 OA
BRANCH  22  24
HETATM   24  C10 UNL     1     -14.523   8.136  13.712  1.00  0.00     0.260 C 
BRANCH  24  25
HETATM   25  O3  UNL     1     -14.784   6.854  13.135  1.00  0.00    -0.314 OA
BRANCH  25  26
HETATM   26  C9  UNL     1     -16.078   6.666  12.754  1.00  0.00     0.259 C 
HETATM   27  O2  UNL     1     -16.590   7.156  11.758  1.00  0.00    -0.265 OA
BRANCH  26  28
HETATM   28  C8  UNL     1     -16.806   5.823  13.759  1.00  0.00     0.120 C 
BRANCH  28  29
HETATM   29  C7  UNL     1     -15.823   4.870  14.418  1.00  0.00     0.112 C 
BRANCH  29  30
HETATM   30  C6  UNL     1     -16.474   3.552  14.771  1.00  0.00     0.218 C 
HETATM   31  N1  UNL     1     -15.615   2.487  14.658  1.00  0.00    -0.346 N 
HETATM   32  H11 UNL     1     -14.616   2.675  14.599  1.00  0.00     0.163 HD
HETATM   33  O1  UNL     1     -17.651   3.449  15.103  1.00  0.00    -0.274 OA
BRANCH  31  34
HETATM   34  C5  UNL     1     -15.976   1.137  15.098  1.00  0.00     0.186 C 
BRANCH  34  35
HETATM   35  C3  UNL     1     -15.859   0.090  13.964  1.00  0.00     0.014 C 
HETATM   36  C4  UNL     1     -16.171   0.691  12.585  1.00  0.00     0.012 C 
BRANCH  35  37
HETATM   37  C2  UNL     1     -16.743  -1.141  14.259  1.00  0.00     0.002 C 
HETATM   38  C1  UNL     1     -15.949  -2.410  14.536  1.00  0.00     0.005 C 
ENDBRANCH  35  37
ENDBRANCH  34  35
BRANCH  34  39
HETATM   39  C31 UNL     1     -15.105   0.728  16.297  1.00  0.00     0.163 C 
HETATM   40  O8  UNL     1     -15.457   0.667  17.464  1.00  0.00    -0.648 OA
BRANCH  39  41
HETATM   41  O9  UNL     1     -13.841   0.382  15.955  1.00  0.00    -0.775 OA
HETATM   42  H43 UNL     1     -13.425   0.155  16.814  1.00  0.00     0.167 HD
ENDBRANCH  39  41
ENDBRANCH  34  39
ENDBRANCH  31  34
ENDBRANCH  29  30
ENDBRANCH  28  29
ENDBRANCH  26  28
ENDBRANCH  25  26
ENDBRANCH  24  25
ENDBRANCH  22  24
ENDBRANCH   1  22
BRANCH   1  43
HETATM   43  O5  UNL     1     -11.293  10.024  13.201  1.00  0.00    -0.381 OA
HETATM   44  H18 UNL     1     -11.512   9.966  12.247  1.00  0.00     0.211 HD
ENDBRANCH   1  43
TORSDOF 13
ENDMDL
