MODEL 1
REMARK minimizedAffinity -7.43080044
REMARK CNNscore 0.53240025
REMARK CNNaffinity 6.78670835
REMARK  13 active torsions:
REMARK  status: ('A' for Active; 'I' for Inactive)
REMARK    1  A    between atoms: C4_4  and  C5_5 
REMARK    2  A    between atoms: C5_5  and  C6_6 
REMARK    3  A    between atoms: C6_6  and  C7_7 
REMARK    4  A    between atoms: C9_9  and  C10_10 
REMARK    5  A    between atoms: C11_11  and  C12_12 
REMARK    6  A    between atoms: C14_14  and  C15_15 
REMARK    7  A    between atoms: C18_18  and  O1_19 
REMARK    8  A    between atoms: C19_21  and  C20_22 
REMARK    9  A    between atoms: C20_22  and  C21_23 
REMARK   10  A    between atoms: C21_23  and  C22_24 
REMARK   11  A    between atoms: C22_24  and  O3_25 
REMARK   12  A    between atoms: C24_27  and  C26_29 
REMARK   13  A    between atoms: C29_33  and  O5_35 
ROOT
HETATM    1  C15 UNL     1      -1.423   4.285  11.273  1.00  0.00     0.149 C 
HETATM    2  C16 UNL     1      -0.608   5.454  10.697  1.00  0.00     0.054 C 
HETATM    3  C17 UNL     1       0.748   5.455  11.461  1.00  0.00     0.050 C 
HETATM    4  C18 UNL     1       0.732   4.022  12.013  1.00  0.00     0.270 C 
HETATM    5  O2  UNL     1      -0.629   3.746  12.331  1.00  0.00    -0.351 OA
HETATM    6  C19 UNL     1       1.923   5.738  10.439  1.00  0.00     0.032 C 
HETATM    7  C23 UNL     1       1.805   7.189   9.930  1.00  0.00    -0.066 C 
HETATM    8  C24 UNL     1       1.671   7.566   8.633  1.00  0.00    -0.021 C 
HETATM    9  C25 UNL     1       1.474   8.995   8.198  1.00  0.00     0.052 C 
HETATM   10  C27 UNL     1       1.864   8.201  11.061  1.00  0.00     0.038 C 
HETATM   11  C28 UNL     1       0.761   7.965  12.085  1.00  0.00     0.042 C 
HETATM   12  C29 UNL     1       0.732   6.521  12.634  1.00  0.00     0.067 C 
HETATM   13  C30 UNL     1      -0.439   6.422  13.626  1.00  0.00     0.047 C 
ENDROOT
BRANCH   4  14
HETATM   14  O1  UNL     1       1.098   3.059  11.038  1.00  0.00    -0.370 OA
HETATM   15  H26 UNL     1       1.071   2.214  11.521  1.00  0.00     0.212 HD
ENDBRANCH   4  14
BRANCH   6  16
HETATM   16  C20 UNL     1       3.395   5.512  10.890  1.00  0.00     0.012 C 
BRANCH  16  17
HETATM   17  C21 UNL     1       4.460   6.499  10.397  1.00  0.00     0.027 C 
BRANCH  17  18
HETATM   18  C22 UNL     1       5.709   6.594  11.269  1.00  0.00     0.164 C 
BRANCH  18  19
HETATM   19  O3  UNL     1       6.875   6.404  10.479  1.00  0.00    -0.401 OA
HETATM   20  H34 UNL     1       7.640   6.540  11.066  1.00  0.00     0.209 HD
ENDBRANCH  18  19
ENDBRANCH  17  18
ENDBRANCH  16  17
ENDBRANCH   6  16
BRANCH  12  21
HETATM   21  O5  UNL     1       1.914   6.330  13.429  1.00  0.00    -0.389 OA
HETATM   22  H46 UNL     1       1.915   6.991  14.145  1.00  0.00     0.210 HD
ENDBRANCH  12  21
BRANCH   1  23
HETATM   23  C14 UNL     1      -2.808   4.682  11.717  1.00  0.00     0.011 C 
HETATM   24  C12 UNL     1      -3.888   3.923  12.005  1.00  0.00    -0.063 C 
HETATM   25  C13 UNL     1      -3.936   2.427  11.826  1.00  0.00     0.048 C 
BRANCH  24  26
HETATM   26  C11 UNL     1      -5.104   4.594  12.477  1.00  0.00     0.006 C 
HETATM   27  C10 UNL     1      -5.179   5.527  13.442  1.00  0.00     0.001 C 
BRANCH  27  28
HETATM   28  C9  UNL     1      -6.431   6.132  13.847  1.00  0.00     0.002 C 
HETATM   29  C7  UNL     1      -7.670   5.629  13.675  1.00  0.00    -0.084 C 
HETATM   30  C8  UNL     1      -8.001   4.329  12.989  1.00  0.00     0.043 C 
BRANCH  29  31
HETATM   31  C6  UNL     1      -8.878   6.416  14.160  1.00  0.00     0.037 C 
BRANCH  31  32
HETATM   32  C5  UNL     1     -10.023   6.444  13.142  1.00  0.00     0.031 C 
BRANCH  32  33
HETATM   33  C4  UNL     1     -10.975   7.578  13.416  1.00  0.00    -0.024 C 
HETATM   34  C2  UNL     1     -12.217   7.501  13.933  1.00  0.00    -0.091 C 
HETATM   35  C1  UNL     1     -12.922   6.224  14.302  1.00  0.00     0.042 C 
HETATM   36  C3  UNL     1     -13.029   8.747  14.170  1.00  0.00     0.042 C 
ENDBRANCH  32  33
ENDBRANCH  31  32
ENDBRANCH  29  31
ENDBRANCH  27  28
ENDBRANCH  24  26
ENDBRANCH   1  23
BRANCH   8  37
HETATM   37  C26 UNL     1       1.723   6.577   7.511  1.00  0.00     0.265 C 
HETATM   38  O4  UNL     1       1.858   6.905   6.336  1.00  0.00    -0.302 OA
ENDBRANCH   8  37
TORSDOF 13
ENDMDL
