MODEL 1
REMARK minimizedAffinity -7.39892006
REMARK CNNscore 0.593666971
REMARK CNNaffinity 6.7819066
REMARK  6 active torsions:
REMARK  status: ('A' for Active; 'I' for Inactive)
REMARK    1  A    between atoms: C2_2  and  C3_3 
REMARK    2  A    between atoms: C4_5  and  C5_6 
REMARK    3  A    between atoms: C5_6  and  C6_7 
REMARK    4  A    between atoms: C6_7  and  C7_8 
REMARK    5  A    between atoms: C7_8  and  C9_10 
REMARK    6  A    between atoms: C30_32  and  O3_33 
ROOT
HETATM    1  C9  UNL     1      -0.475  11.890  18.198  1.00  0.00    -0.002 C 
HETATM    2  C10 UNL     1      -1.633  12.915  18.055  1.00  0.00     0.007 C 
HETATM    3  C11 UNL     1      -2.662  12.319  17.076  1.00  0.00     0.015 C 
HETATM    4  C12 UNL     1      -2.266  10.838  16.921  1.00  0.00    -0.010 C 
HETATM    5  C13 UNL     1      -2.886  10.064  18.126  1.00  0.00     0.021 C 
HETATM    6  C14 UNL     1      -2.701  10.054  15.681  1.00  0.00    -0.039 C 
HETATM    7  C15 UNL     1      -1.925   9.037  15.215  1.00  0.00    -0.066 C 
HETATM    8  C16 UNL     1      -0.592   8.675  15.875  1.00  0.00     0.036 C 
HETATM    9  C17 UNL     1      -0.111   9.555  17.045  1.00  0.00     0.015 C 
HETATM   10  C18 UNL     1      -0.689  10.972  16.956  1.00  0.00    -0.029 C 
HETATM   11  C19 UNL     1      -0.100  11.674  15.692  1.00  0.00     0.016 C 
HETATM   12  C20 UNL     1      -2.283   8.312  13.898  1.00  0.00    -0.015 C 
HETATM   13  C21 UNL     1      -1.744   9.226  12.753  1.00  0.00     0.020 C 
HETATM   14  C22 UNL     1      -1.557   6.943  13.747  1.00  0.00     0.021 C 
HETATM   15  C23 UNL     1      -2.174   6.060  12.679  1.00  0.00     0.080 C 
HETATM   16  C24 UNL     1      -3.576   5.678  13.073  1.00  0.00     0.135 C 
HETATM   17  O2  UNL     1      -4.043   4.597  12.707  1.00  0.00    -0.297 OA
HETATM   18  C25 UNL     1      -4.385   6.675  13.920  1.00  0.00     0.018 C 
HETATM   19  C26 UNL     1      -5.854   6.579  13.439  1.00  0.00     0.023 C 
HETATM   20  C27 UNL     1      -4.328   6.206  15.386  1.00  0.00     0.023 C 
HETATM   21  C28 UNL     1      -3.842   8.136  13.695  1.00  0.00     0.016 C 
HETATM   22  C29 UNL     1      -4.698   9.173  14.455  1.00  0.00     0.043 C 
HETATM   23  C30 UNL     1      -3.978  10.417  14.963  1.00  0.00     0.148 C 
ENDROOT
BRANCH   1  24
HETATM   24  C7  UNL     1       0.898  12.591  18.416  1.00  0.00    -0.014 C 
HETATM   25  C8  UNL     1       1.102  13.797  17.495  1.00  0.00     0.010 C 
BRANCH  24  26
HETATM   26  C6  UNL     1       2.100  11.619  18.279  1.00  0.00     0.008 C 
BRANCH  26  27
HETATM   27  C5  UNL     1       2.966  11.470  19.536  1.00  0.00     0.028 C 
BRANCH  27  28
HETATM   28  C4  UNL     1       2.428  10.390  20.432  1.00  0.00    -0.017 C 
HETATM   29  C2  UNL     1       3.007   9.886  21.538  1.00  0.00    -0.028 C 
HETATM   30  C1  UNL     1       4.300  10.318  22.154  1.00  0.00     0.051 C 
BRANCH  29  31
HETATM   31  C3  UNL     1       2.293   8.790  22.264  1.00  0.00     0.265 C 
HETATM   32  O1  UNL     1       2.695   8.280  23.303  1.00  0.00    -0.302 OA
ENDBRANCH  29  31
ENDBRANCH  27  28
ENDBRANCH  26  27
ENDBRANCH  24  26
ENDBRANCH   1  24
BRANCH  23  33
HETATM   33  O3  UNL     1      -4.889  11.080  15.832  1.00  0.00    -0.391 OA
HETATM   34  H46 UNL     1      -5.653  11.353  15.298  1.00  0.00     0.210 HD
ENDBRANCH  23  33
TORSDOF 6
ENDMDL
