MODEL 1
REMARK minimizedAffinity -8.7483778
REMARK  5 active torsions:
REMARK  status: ('A' for Active; 'I' for Inactive)
REMARK    1  A    between atoms: C2_2  and  C4_4 
REMARK    2  A    between atoms: C7_7  and  C8_8 
REMARK    3  A    between atoms: C8_8  and  O2_10 
REMARK    4  A    between atoms: C21_24  and  C23_26 
REMARK    5  A    between atoms: C23_26  and  O4_27 
ROOT
HETATM    1  C4  UNL     1       1.143   8.276  10.234  1.00  0.00     0.019 C 
HETATM    2  C5  UNL     1       2.697   8.243  10.217  1.00  0.00     0.011 C 
HETATM    3  C6  UNL     1       3.154   7.547  11.522  1.00  0.00     0.021 C 
HETATM    4  C7  UNL     1       1.886   7.459  12.394  1.00  0.00     0.050 C 
HETATM    5  C9  UNL     1       1.865   6.269  13.365  1.00  0.00     0.022 C 
HETATM    6  C10 UNL     1       0.438   5.973  13.897  1.00  0.00     0.011 C 
HETATM    7  C11 UNL     1      -0.688   5.780  12.806  1.00  0.00    -0.032 C 
HETATM    8  C12 UNL     1      -0.302   4.465  12.052  1.00  0.00     0.016 C 
HETATM    9  C13 UNL     1      -0.617   7.013  11.817  1.00  0.00     0.000 C 
HETATM   10  C14 UNL     1      -1.227   8.325  12.356  1.00  0.00     0.006 C 
HETATM   11  C15 UNL     1      -2.190   8.158  13.523  1.00  0.00     0.006 C 
HETATM   12  C16 UNL     1      -3.054   6.926  13.285  1.00  0.00     0.003 C 
HETATM   13  C17 UNL     1      -4.460   6.949  14.001  1.00  0.00    -0.031 C 
HETATM   14  C18 UNL     1      -4.337   7.399  15.482  1.00  0.00     0.016 C 
HETATM   15  C19 UNL     1      -5.369   7.979  13.279  1.00  0.00     0.036 C 
HETATM   16  C20 UNL     1      -6.787   8.033  13.843  1.00  0.00     0.169 C 
HETATM   17  O3  UNL     1      -7.176   6.842  14.515  1.00  0.00    -0.378 OA
HETATM   18  C21 UNL     1      -6.745   5.619  13.891  1.00  0.00     0.082 C 
HETATM   19  C22 UNL     1      -7.288   4.505  14.810  1.00  0.00     0.049 C 
HETATM   20  C24 UNL     1      -5.163   5.545  13.906  1.00  0.00     0.030 C 
HETATM   21  C25 UNL     1      -4.596   4.690  12.758  1.00  0.00     0.009 C 
HETATM   22  C26 UNL     1      -3.065   4.531  12.690  1.00  0.00     0.011 C 
HETATM   23  C27 UNL     1      -2.210   5.608  13.437  1.00  0.00    -0.032 C 
HETATM   24  C28 UNL     1      -2.067   5.110  14.898  1.00  0.00     0.016 C 
HETATM   25  C29 UNL     1       0.824   7.213  11.298  1.00  0.00     0.017 C 
ENDROOT
BRANCH   4  26
HETATM   26  C8  UNL     1       1.799   8.749  13.239  1.00  0.00     0.149 C 
HETATM   27  O1  UNL     1       1.393   8.848  14.385  1.00  0.00    -0.649 OA
BRANCH  26  28
HETATM   28  O2  UNL     1       2.230   9.864  12.621  1.00  0.00    -0.776 OA
HETATM   29  H11 UNL     1       2.109  10.563  13.297  1.00  0.00     0.167 HD
ENDBRANCH  26  28
ENDBRANCH   4  26
BRANCH   1  30
HETATM   30  C2  UNL     1       0.562   8.129   8.837  1.00  0.00    -0.088 C 
HETATM   31  C1  UNL     1      -0.712   8.384   8.496  1.00  0.00     0.014 C 
HETATM   32  C3  UNL     1       1.542   7.655   7.793  1.00  0.00     0.043 C 
ENDBRANCH   1  30
BRANCH  18  33
HETATM   33  C23 UNL     1      -7.445   5.490  12.505  1.00  0.00     0.202 C 
BRANCH  33  34
HETATM   34  O4  UNL     1      -8.859   5.647  12.542  1.00  0.00    -0.398 OA
HETATM   35  H37 UNL     1      -9.044   6.594  12.669  1.00  0.00     0.209 HD
ENDBRANCH  33  34
ENDBRANCH  18  33
TORSDOF 5
ENDMDL
