MODEL 1
REMARK minimizedAffinity -7.84057903
REMARK CNNscore 0.543687642
REMARK CNNaffinity 6.7394371
REMARK  4 active torsions:
REMARK  status: ('A' for Active; 'I' for Inactive)
REMARK    1  A    between atoms: C4_4  and  C5_5 
REMARK    2  A    between atoms: C5_5  and  C6_6 
REMARK    3  A    between atoms: C6_6  and  C7_7 
REMARK    4  A    between atoms: C7_7  and  C9_9 
ROOT
HETATM    1  C9  UNL     1      -0.762  53.139  -9.518  1.00  0.00    -0.002 C 
HETATM    2  C10 UNL     1      -0.438  52.771 -10.988  1.00  0.00     0.010 C 
HETATM    3  C11 UNL     1       0.823  53.582 -11.387  1.00  0.00    -0.013 C 
HETATM    4  C12 UNL     1       1.878  52.634 -11.953  1.00  0.00     0.010 C 
HETATM    5  C13 UNL     1       1.225  54.308 -10.092  1.00  0.00     0.003 C 
HETATM    6  C14 UNL     1       2.090  55.591 -10.129  1.00  0.00    -0.000 C 
HETATM    7  C15 UNL     1       3.368  55.516 -10.953  1.00  0.00     0.006 C 
HETATM    8  C16 UNL     1       4.496  54.682 -10.356  1.00  0.00     0.006 C 
HETATM    9  C17 UNL     1       4.461  54.412  -8.836  1.00  0.00     0.003 C 
HETATM   10  C18 UNL     1       5.889  54.186  -8.217  1.00  0.00    -0.043 C 
HETATM   11  C19 UNL     1       6.786  55.438  -8.323  1.00  0.00     0.015 C 
HETATM   12  C20 UNL     1       6.609  53.025  -8.937  1.00  0.00     0.015 C 
HETATM   13  C21 UNL     1       5.741  53.785  -6.727  1.00  0.00     0.009 C 
HETATM   14  C22 UNL     1       4.920  54.784  -5.923  1.00  0.00     0.002 C 
HETATM   15  C23 UNL     1       3.539  54.982  -6.533  1.00  0.00     0.011 C 
HETATM   16  C24 UNL     1       3.620  55.389  -7.998  1.00  0.00    -0.027 A 
HETATM   17  C25 UNL     1       3.565  56.867  -8.321  1.00  0.00     0.021 A 
HETATM   18  C26 UNL     1       2.374  55.992  -8.670  1.00  0.00    -0.028 A 
HETATM   19  C27 UNL     1       1.091  56.225  -7.878  1.00  0.00     0.011 C 
HETATM   20  C28 UNL     1       0.165  54.999  -7.921  1.00  0.00     0.011 C 
HETATM   21  C29 UNL     1      -0.148  54.559  -9.367  1.00  0.00    -0.036 C 
HETATM   22  C30 UNL     1      -1.019  55.638 -10.052  1.00  0.00     0.016 C 
ENDROOT
BRANCH   1  23
HETATM   23  C7  UNL     1      -2.220  52.779  -9.107  1.00  0.00    -0.014 C 
HETATM   24  C8  UNL     1      -2.537  51.291  -8.932  1.00  0.00     0.010 C 
BRANCH  23  25
HETATM   25  C6  UNL     1      -3.257  53.455 -10.035  1.00  0.00     0.008 C 
BRANCH  25  26
HETATM   26  C5  UNL     1      -4.135  52.492 -10.851  1.00  0.00     0.028 C 
BRANCH  26  27
HETATM   27  C4  UNL     1      -3.698  52.377 -12.286  1.00  0.00    -0.025 C 
HETATM   28  C2  UNL     1      -3.266  51.279 -12.939  1.00  0.00    -0.091 C 
HETATM   29  C1  UNL     1      -3.097  49.914 -12.336  1.00  0.00     0.042 C 
HETATM   30  C3  UNL     1      -2.897  51.356 -14.398  1.00  0.00     0.042 C 
ENDBRANCH  26  27
ENDBRANCH  25  26
ENDBRANCH  23  25
ENDBRANCH   1  23
TORSDOF 4
ENDMDL
