MODEL 1
REMARK minimizedAffinity -9.61631775
REMARK CNNscore 0.618548751
REMARK CNNaffinity 7.09965181
REMARK  6 active torsions:
REMARK  status: ('A' for Active; 'I' for Inactive)
REMARK    1  A    between atoms: C5_5  and  C6_6 
REMARK    2  A    between atoms: C6_6  and  C7_7 
REMARK    3  A    between atoms: C13_15  and  O3_16 
REMARK    4  A    between atoms: C24_28  and  C25_29 
REMARK    5  A    between atoms: C25_29  and  O5_30 
REMARK    6  A    between atoms: C25_29  and  C26_31 
ROOT
HETATM    1  C6  UNL     1      -9.232   6.777  13.863  1.00  0.00     0.033 C 
ENDROOT
BRANCH   1   2
HETATM    2  C5  UNL     1      -8.457   5.616  14.550  1.00  0.00    -0.002 C 
HETATM    3  C4  UNL     1      -7.898   6.031  15.930  1.00  0.00     0.010 C 
HETATM    4  C3  UNL     1      -6.831   7.122  15.817  1.00  0.00     0.034 C 
HETATM    5  C2  UNL     1      -6.028   6.979  14.542  1.00  0.00    -0.082 C 
HETATM    6  C1  UNL     1      -5.575   8.070  13.902  1.00  0.00     0.015 C 
HETATM    7  C24 UNL     1      -5.855   5.521  14.088  1.00  0.00     0.054 C 
HETATM    8  C21 UNL     1      -7.288   4.963  13.665  1.00  0.00    -0.034 C 
HETATM    9  C22 UNL     1      -7.347   3.435  13.937  1.00  0.00     0.016 C 
HETATM   10  C23 UNL     1      -7.553   5.160  12.159  1.00  0.00     0.016 C 
BRANCH   7  11
HETATM   11  C25 UNL     1      -4.668   5.293  13.084  1.00  0.00     0.150 C 
BRANCH  11  12
HETATM   12  O5  UNL     1      -3.446   5.697  13.717  1.00  0.00    -0.391 OA
HETATM   13  H39 UNL     1      -2.719   5.520  13.098  1.00  0.00     0.210 HD
ENDBRANCH  11  12
BRANCH  11  14
HETATM   14  C26 UNL     1      -4.425   3.865  12.693  1.00  0.00     0.018 C 
HETATM   15  C27 UNL     1      -3.388   3.401  11.978  1.00  0.00     0.018 C 
HETATM   16  C28 UNL     1      -2.216   4.110  11.418  1.00  0.00     0.071 C 
HETATM   17  C30 UNL     1      -3.241   1.963  11.651  1.00  0.00     0.289 C 
HETATM   18  C29 UNL     1      -1.225   2.976  11.318  1.00  0.00     0.183 C 
HETATM   19  O6  UNL     1      -1.991   1.783  11.144  1.00  0.00    -0.317 OA
HETATM   20  O7  UNL     1      -4.086   1.100  11.789  1.00  0.00    -0.260 OA
ENDBRANCH  11  14
ENDBRANCH   7  11
ENDBRANCH   1   2
BRANCH   1  21
HETATM   21  C7  UNL     1     -10.279   7.413  14.741  1.00  0.00    -0.021 C 
HETATM   22  C8  UNL     1     -11.510   7.818  14.373  1.00  0.00    -0.060 C 
HETATM   23  C9  UNL     1     -12.454   8.451  15.363  1.00  0.00     0.041 C 
HETATM   24  C12 UNL     1     -12.111   7.675  13.001  1.00  0.00     0.205 C 
HETATM   25  C10 UNL     1     -13.783   7.702  15.340  1.00  0.00     0.076 C 
HETATM   26  C11 UNL     1     -14.333   7.604  13.905  1.00  0.00     0.199 C 
HETATM   27  O1  UNL     1     -13.348   6.964  13.077  1.00  0.00    -0.348 OA
HETATM   28  O2  UNL     1     -14.590   8.946  13.412  1.00  0.00    -0.313 OA
HETATM   29  C16 UNL     1     -15.664   6.758  13.823  1.00  0.00     0.115 C 
HETATM   30  C13 UNL     1     -15.911   9.070  12.860  1.00  0.00     0.196 C 
HETATM   31  C14 UNL     1     -16.044   8.048  11.725  1.00  0.00     0.075 C 
HETATM   32  C18 UNL     1     -16.958   8.779  13.989  1.00  0.00     0.111 C 
HETATM   33  C15 UNL     1     -16.081   6.650  12.338  1.00  0.00     0.049 C 
HETATM   34  O4  UNL     1     -16.729   7.451  14.535  1.00  0.00    -0.359 OA
HETATM   35  C19 UNL     1     -18.409   8.823  13.483  1.00  0.00     0.051 C 
HETATM   36  C20 UNL     1     -16.845   9.785  15.146  1.00  0.00     0.051 C 
HETATM   37  C17 UNL     1     -15.553   5.356  14.422  1.00  0.00     0.052 C 
BRANCH  30  38
HETATM   38  O3  UNL     1     -16.031  10.370  12.319  1.00  0.00    -0.363 OA
HETATM   39  H17 UNL     1     -15.623  10.951  12.983  1.00  0.00     0.213 HD
ENDBRANCH  30  38
ENDBRANCH   1  21
TORSDOF 6
ENDMDL
