MODEL 1
REMARK minimizedAffinity -5.86646271
REMARK CNNscore 0.279316783
REMARK CNNaffinity 5.65893793
REMARK  6 active torsions:
REMARK  status: ('A' for Active; 'I' for Inactive)
REMARK    1  A    between atoms: C9_10  and  C10_11 
REMARK    2  A    between atoms: C11_13  and  O3_14 
REMARK    3  A    between atoms: C12_15  and  C13_16 
REMARK    4  A    between atoms: C14_18  and  O5_19 
REMARK    5  A    between atoms: C16_21  and  C17_22 
REMARK    6  A    between atoms: C17_22  and  C18_23 
ROOT
HETATM    1  C1  UNL     1     -17.079  -9.820  35.199  1.00  0.00     0.043 C 
HETATM    2  C2  UNL     1     -15.876  -9.033  34.740  1.00  0.00    -0.087 C 
HETATM    3  C3  UNL     1     -14.678  -9.642  34.638  1.00  0.00    -0.024 C 
HETATM    4  C4  UNL     1     -13.382  -9.034  34.206  1.00  0.00     0.030 C 
HETATM    5  C5  UNL     1     -12.890  -9.514  32.840  1.00  0.00     0.042 C 
HETATM    6  C6  UNL     1     -13.807  -9.367  31.582  1.00  0.00     0.069 C 
HETATM    7  C7  UNL     1     -14.901 -10.463  31.609  1.00  0.00     0.047 C 
HETATM    8  O1  UNL     1     -12.906  -9.811  30.509  1.00  0.00    -0.338 OA
HETATM    9  C8  UNL     1     -13.195  -9.359  29.254  1.00  0.00     0.095 A 
HETATM   10  C9  UNL     1     -13.106 -10.237  28.169  1.00  0.00     0.070 A 
HETATM   11  C11 UNL     1     -13.438  -9.791  26.880  1.00  0.00     0.097 A 
HETATM   12  C12 UNL     1     -13.824  -8.461  26.685  1.00  0.00     0.069 A 
HETATM   13  C14 UNL     1     -13.863  -7.578  27.778  1.00  0.00     0.091 A 
HETATM   14  C15 UNL     1     -13.534  -8.020  29.067  1.00  0.00     0.015 A 
HETATM   15  C16 UNL     1     -13.561  -7.128  30.281  1.00  0.00     0.032 C 
HETATM   16  C21 UNL     1     -14.360  -7.883  31.395  1.00  0.00     0.034 C 
HETATM   17  C22 UNL     1     -15.850  -7.842  31.054  1.00  0.00     0.006 A 
HETATM   18  C23 UNL     1     -17.039  -7.665  32.014  1.00  0.00    -0.001 A 
HETATM   19  C24 UNL     1     -17.200  -7.231  33.449  1.00  0.00     0.010 C 
HETATM   20  C25 UNL     1     -16.112  -7.565  34.460  1.00  0.00     0.034 C 
HETATM   21  C26 UNL     1     -16.692  -6.576  30.990  1.00  0.00    -0.039 A 
HETATM   22  C27 UNL     1     -17.624  -6.423  29.809  1.00  0.00     0.015 C 
HETATM   23  C28 UNL     1     -16.124  -5.250  31.451  1.00  0.00     0.015 C 
ENDROOT
BRANCH  15  24
HETATM   24  C17 UNL     1     -12.169  -6.672  30.784  1.00  0.00     0.014 C 
BRANCH  24  25
HETATM   25  C18 UNL     1     -11.940  -5.141  30.805  1.00  0.00    -0.022 C 
HETATM   26  C19 UNL     1     -12.709  -4.468  31.948  1.00  0.00     0.009 C 
HETATM   27  C20 UNL     1     -12.396  -4.526  29.476  1.00  0.00     0.009 C 
ENDBRANCH  24  25
ENDBRANCH  15  24
BRANCH  13  28
HETATM   28  O5  UNL     1     -14.224  -6.263  27.628  1.00  0.00    -0.359 OA
HETATM   29  H15 UNL     1     -14.506  -6.122  26.695  1.00  0.00     0.217 HD
ENDBRANCH  13  28
BRANCH  10  30
HETATM   30  C10 UNL     1     -12.685 -11.633  28.399  1.00  0.00     0.275 C 
HETATM   31  O2  UNL     1     -11.790 -12.125  27.721  1.00  0.00    -0.301 OA
ENDBRANCH  10  30
BRANCH  12  32
HETATM   32  C13 UNL     1     -14.195  -8.001  25.329  1.00  0.00     0.275 C 
HETATM   33  O4  UNL     1     -13.406  -8.117  24.395  1.00  0.00    -0.301 OA
ENDBRANCH  12  32
BRANCH  11  34
HETATM   34  O3  UNL     1     -13.399 -10.629  25.793  1.00  0.00    -0.359 OA
HETATM   35  H13 UNL     1     -13.106 -11.527  26.091  1.00  0.00     0.217 HD
ENDBRANCH  11  34
TORSDOF 6
ENDMDL
