MODEL 1
REMARK minimizedAffinity -9.39875793
REMARK CNNscore 0.813161254
REMARK CNNaffinity 7.40296698
REMARK  12 active torsions:
REMARK  status: ('A' for Active; 'I' for Inactive)
REMARK    1  A    between atoms: O1_2  and  C2_3 
REMARK    2  A    between atoms: C2_3  and  C3_4 
REMARK    3  A    between atoms: C3_4  and  C4_5 
REMARK    4  A    between atoms: C4_5  and  O2_6 
REMARK    5  A    between atoms: O2_6  and  C5_7 
REMARK    6  A    between atoms: C20_23  and  C21_24 
REMARK    7  A    between atoms: C21_24  and  O4_26 
REMARK    8  A    between atoms: C21_24  and  C23_27 
REMARK    9  A    between atoms: C23_27  and  O5_28 
REMARK   10  A    between atoms: C23_27  and  C24_29 
REMARK   11  A    between atoms: C29_36  and  O7_37 
REMARK   12  A    between atoms: C34_42  and  O8_43 
ROOT
HETATM    1  C5  UNL     1      -4.450   4.871  13.643  1.00  0.00     0.122 C 
HETATM    2  C6  UNL     1      -3.392   5.366  12.644  1.00  0.00     0.033 C 
HETATM    3  C7  UNL     1      -2.484   6.425  13.259  1.00  0.00     0.013 C 
HETATM    4  C8  UNL     1      -3.264   7.707  13.699  1.00  0.00    -0.026 C 
HETATM    5  C9  UNL     1      -3.227   8.732  12.535  1.00  0.00     0.016 C 
HETATM    6  C10 UNL     1      -4.764   7.359  13.938  1.00  0.00     0.071 C 
HETATM    7  C11 UNL     1      -4.931   5.983  14.590  1.00  0.00     0.045 C 
HETATM    8  C12 UNL     1      -5.522   8.419  14.708  1.00  0.00     0.154 C 
HETATM    9  O3  UNL     1      -6.747   8.519  14.645  1.00  0.00    -0.293 OA
HETATM   10  C13 UNL     1      -4.794   9.320  15.626  1.00  0.00     0.057 C 
HETATM   11  C14 UNL     1      -3.469   9.231  15.807  1.00  0.00    -0.037 C 
HETATM   12  C15 UNL     1      -2.585   8.273  15.011  1.00  0.00     0.026 C 
HETATM   13  C16 UNL     1      -1.160   8.836  14.730  1.00  0.00     0.011 C 
HETATM   14  C17 UNL     1      -0.511   9.607  15.891  1.00  0.00     0.014 C 
HETATM   15  C18 UNL     1      -1.462  10.685  16.457  1.00  0.00    -0.002 C 
HETATM   16  C19 UNL     1      -1.746  11.747  15.368  1.00  0.00     0.019 C 
HETATM   17  C20 UNL     1      -1.001  11.334  17.811  1.00  0.00     0.034 C 
HETATM   18  C32 UNL     1      -2.334  11.803  18.456  1.00  0.00     0.012 C 
HETATM   19  C33 UNL     1      -3.472  11.049  17.740  1.00  0.00     0.044 C 
HETATM   20  C34 UNL     1      -2.761   9.964  16.923  1.00  0.00     0.089 C 
ENDROOT
BRANCH  17  21
HETATM   21  C21 UNL     1       0.189  12.361  17.876  1.00  0.00     0.087 C 
HETATM   22  C22 UNL     1      -0.194  13.732  18.448  1.00  0.00     0.049 C 
BRANCH  21  23
HETATM   23  O4  UNL     1       0.651  12.588  16.533  1.00  0.00    -0.387 OA
HETATM   24  H34 UNL     1       0.881  11.726  16.147  1.00  0.00     0.210 HD
ENDBRANCH  21  23
BRANCH  21  25
HETATM   25  C23 UNL     1       1.387  11.731  18.694  1.00  0.00     0.181 C 
BRANCH  25  26
HETATM   26  O5  UNL     1       1.869  10.553  18.041  1.00  0.00    -0.390 OA
HETATM   27  H36 UNL     1       2.821  10.481  18.216  1.00  0.00     0.210 HD
ENDBRANCH  25  26
BRANCH  25  28
HETATM   28  C24 UNL     1       1.085  11.459  20.201  1.00  0.00     0.158 C 
HETATM   29  O6  UNL     1       1.233  10.058  20.520  1.00  0.00    -0.373 OA
HETATM   30  C25 UNL     1       2.473   9.850  21.234  1.00  0.00     0.185 C 
HETATM   31  C26 UNL     1       3.130  11.210  21.426  1.00  0.00     0.027 C 
HETATM   32  C29 UNL     1       2.171   9.139  22.572  1.00  0.00     0.383 C 
HETATM   33  C27 UNL     1       3.863  11.342  22.763  1.00  0.00     0.038 C 
HETATM   34  C30 UNL     1       1.972  12.176  21.230  1.00  0.00     0.020 C 
HETATM   35  C28 UNL     1       4.373   9.980  23.231  1.00  0.00     0.273 C 
HETATM   36  N1  UNL     1       3.271   9.069  23.515  1.00  0.00     0.114 N 
HETATM   37  H44 UNL     1       3.595   8.101  23.520  1.00  0.00     0.319 HD
HETATM   38  C31 UNL     1       2.394  13.599  20.905  1.00  0.00     0.013 C 
BRANCH  32  39
HETATM   39  O7  UNL     1       1.763   7.806  22.302  1.00  0.00    -0.366 OA
HETATM   40  H46 UNL     1       1.076   7.891  21.615  1.00  0.00     0.212 HD
ENDBRANCH  32  39
ENDBRANCH  25  28
ENDBRANCH  21  25
ENDBRANCH  17  21
BRANCH  20  41
HETATM   41  O8  UNL     1      -2.421   8.925  17.865  1.00  0.00    -0.384 OA
HETATM   42  H55 UNL     1      -3.259   8.545  18.184  1.00  0.00     0.211 HD
ENDBRANCH  20  41
BRANCH   1  43
HETATM   43  O2  UNL     1      -5.542   4.376  12.861  1.00  0.00    -0.386 OA
BRANCH  43  44
HETATM   44  C4  UNL     1      -6.817   4.603  13.454  1.00  0.00     0.170 C 
BRANCH  44  45
HETATM   45  C3  UNL     1      -7.868   4.717  12.356  1.00  0.00     0.052 C 
BRANCH  45  46
HETATM   46  C2  UNL     1      -8.812   5.895  12.588  1.00  0.00     0.169 C 
BRANCH  46  47
HETATM   47  O1  UNL     1      -8.906   6.209  13.980  1.00  0.00    -0.396 OA
HETATM   48  C1  UNL     1     -10.037   7.007  14.301  1.00  0.00     0.201 C 
ENDBRANCH  46  47
ENDBRANCH  45  46
ENDBRANCH  44  45
ENDBRANCH  43  44
ENDBRANCH   1  43
TORSDOF 12
ENDMDL
