MODEL 1
REMARK minimizedAffinity -7.65342188
REMARK CNNscore 0.589732885
REMARK CNNaffinity 6.17540884
REMARK  10 active torsions:
REMARK  status: ('A' for Active; 'I' for Inactive)
REMARK    1  A    between atoms: C3_3  and  O1_4 
REMARK    2  A    between atoms: N1_14  and  O2_16 
REMARK    3  A    between atoms: O2_16  and  C13_17 
REMARK    4  A    between atoms: C13_17  and  C14_18 
REMARK       I    between atoms: C14_18  and  N2_20 
REMARK    5  A    between atoms: N2_20  and  C15_21 
REMARK    6  A    between atoms: C15_21  and  C16_22 
REMARK       I    between atoms: C16_22  and  N3_24 
REMARK    7  A    between atoms: N3_24  and  C17_25 
REMARK    8  A    between atoms: C17_25  and  C18_26 
REMARK    9  A    between atoms: C17_25  and  C19_29 
REMARK   10  A    between atoms: C18_26  and  O6_28 
ROOT
HETATM    1  C1  UNL     1      -0.644  52.233 -22.688  1.00  0.00     0.015 C 
HETATM    2  C2  UNL     1      -1.169  51.204 -22.357  1.00  0.00    -0.078 C 
HETATM    3  C3  UNL     1      -1.800  49.933 -21.968  1.00  0.00     0.128 C 
HETATM    4  C4  UNL     1      -0.834  49.017 -21.209  1.00  0.00     0.052 C 
HETATM    5  C5  UNL     1      -1.755  47.950 -20.626  1.00  0.00     0.010 C 
HETATM    6  C6  UNL     1      -3.010  48.725 -20.194  1.00  0.00     0.002 C 
HETATM    7  C7  UNL     1      -4.340  47.938 -20.201  1.00  0.00    -0.004 C 
HETATM    8  C8  UNL     1      -4.612  47.041 -21.422  1.00  0.00     0.010 C 
HETATM    9  C9  UNL     1      -6.042  47.072 -21.983  1.00  0.00     0.035 C 
HETATM   10  C10 UNL     1      -7.163  47.309 -21.000  1.00  0.00    -0.069 C 
HETATM   11  C11 UNL     1      -8.410  46.902 -21.300  1.00  0.00     0.030 C 
HETATM   12  C12 UNL     1      -9.570  47.243 -20.433  1.00  0.00     0.032 C 
HETATM   13  N1  UNL     1     -10.683  46.595 -20.634  1.00  0.00    -0.271 N 
ATOM     14  H1  UNL     1     -10.795  45.841 -21.312  1.00  0.00     0.194 HD
HETATM   15  C22 UNL     1      -9.404  48.316 -19.367  1.00  0.00     0.060 C 
HETATM   16  C23 UNL     1      -8.055  49.030 -19.428  1.00  0.00     0.020 C 
HETATM   17  C24 UNL     1      -6.865  48.082 -19.726  1.00  0.00    -0.016 C 
HETATM   18  C25 UNL     1      -6.733  47.063 -18.558  1.00  0.00     0.020 C 
HETATM   19  C26 UNL     1      -5.524  48.886 -19.877  1.00  0.00     0.002 C 
HETATM   20  C27 UNL     1      -5.602  50.078 -20.868  1.00  0.00     0.007 C 
HETATM   21  C28 UNL     1      -4.355  50.294 -21.732  1.00  0.00     0.014 C 
HETATM   22  C29 UNL     1      -3.020  50.071 -20.994  1.00  0.00     0.003 C 
HETATM   23  C30 UNL     1      -2.818  51.229 -19.976  1.00  0.00     0.020 C 
ENDROOT
BRANCH   3  24
HETATM   24  O1  UNL     1      -2.178  49.239 -23.163  1.00  0.00    -0.377 OA
HETATM   25  H2  UNL     1      -1.446  49.345 -23.793  1.00  0.00     0.211 HD
ENDBRANCH   3  24
BRANCH  13  26
HETATM   26  O2  UNL     1     -11.709  47.066 -19.799  1.00  0.00    -0.271 OA
BRANCH  26  27
HETATM   27  C13 UNL     1     -12.945  46.502 -20.210  1.00  0.00     0.303 C 
BRANCH  27  28
HETATM   28  C14 UNL     1     -13.756  47.338 -21.211  1.00  0.00     0.244 C 
HETATM   29  O3  UNL     1     -14.115  48.495 -21.021  1.00  0.00    -0.271 OA
HETATM   30  N2  UNL     1     -14.053  46.640 -22.374  1.00  0.00    -0.350 N 
HETATM   31  H16 UNL     1     -14.107  45.629 -22.287  1.00  0.00     0.163 HD
BRANCH  30  32
HETATM   32  C15 UNL     1     -14.896  47.237 -23.392  1.00  0.00     0.225 C 
BRANCH  32  33
HETATM   33  C16 UNL     1     -15.810  46.189 -24.035  1.00  0.00     0.236 C 
HETATM   34  O4  UNL     1     -15.535  45.604 -25.084  1.00  0.00    -0.272 OA
HETATM   35  N3  UNL     1     -16.997  45.996 -23.351  1.00  0.00    -0.345 N 
HETATM   36  H19 UNL     1     -17.258  46.716 -22.690  1.00  0.00     0.163 HD
BRANCH  35  37
HETATM   37  C17 UNL     1     -18.101  45.250 -23.972  1.00  0.00     0.185 C 
BRANCH  37  38
HETATM   38  C18 UNL     1     -18.753  46.178 -25.001  1.00  0.00     0.163 C 
HETATM   39  O5  UNL     1     -19.301  47.246 -24.761  1.00  0.00    -0.648 OA
BRANCH  38  40
HETATM   40  O6  UNL     1     -18.692  45.716 -26.263  1.00  0.00    -0.775 OA
HETATM   41  H21 UNL     1     -19.133  46.410 -26.799  1.00  0.00     0.167 HD
ENDBRANCH  38  40
ENDBRANCH  37  38
BRANCH  37  42
HETATM   42  C19 UNL     1     -19.087  44.736 -22.902  1.00  0.00     0.010 C 
HETATM   43  C20 UNL     1     -20.472  44.469 -23.501  1.00  0.00     0.012 C 
HETATM   44  C21 UNL     1     -19.211  45.657 -21.684  1.00  0.00     0.012 C 
ENDBRANCH  37  42
ENDBRANCH  35  37
ENDBRANCH  32  33
ENDBRANCH  30  32
ENDBRANCH  27  28
ENDBRANCH  26  27
ENDBRANCH  13  26
TORSDOF 10
ENDMDL
