MODEL 1
REMARK minimizedAffinity -7.31954241
REMARK CNNscore 0.569650292
REMARK CNNaffinity 6.730124
REMARK  7 active torsions:
REMARK  status: ('A' for Active; 'I' for Inactive)
REMARK    1  A    between atoms: C2_2  and  C4_4 
REMARK    2  A    between atoms: C7_7  and  O1_9 
REMARK    3  A    between atoms: C9_10  and  C10_11 
REMARK    4  A    between atoms: C11_12  and  C12_13 
REMARK    5  A    between atoms: C14_15  and  C15_16 
REMARK    6  A    between atoms: C24_26  and  C26_28 
REMARK    7  A    between atoms: C29_32  and  O4_34 
ROOT
HETATM    1  C15 UNL     1      -5.026  48.650 -30.105  1.00  0.00     0.149 C 
HETATM    2  C16 UNL     1      -6.523  48.916 -30.221  1.00  0.00     0.054 C 
HETATM    3  C17 UNL     1      -7.168  47.514 -30.284  1.00  0.00     0.050 C 
HETATM    4  C18 UNL     1      -6.187  46.787 -29.324  1.00  0.00     0.272 C 
HETATM    5  O2  UNL     1      -6.435  47.025 -27.941  1.00  0.00    -0.360 OA
HETATM    6  C19 UNL     1      -7.358  46.125 -27.362  1.00  0.00     0.171 C 
HETATM    7  C20 UNL     1      -8.767  46.692 -27.395  1.00  0.00     0.027 C 
HETATM    8  C21 UNL     1      -8.969  47.857 -28.358  1.00  0.00     0.012 C 
HETATM    9  C22 UNL     1      -8.685  47.576 -29.851  1.00  0.00     0.032 C 
HETATM   10  C23 UNL     1      -9.535  46.399 -30.377  1.00  0.00    -0.066 C 
HETATM   11  C24 UNL     1     -10.877  46.440 -30.573  1.00  0.00    -0.021 C 
HETATM   12  C25 UNL     1     -11.704  45.284 -31.062  1.00  0.00     0.052 C 
HETATM   13  C27 UNL     1      -8.728  45.169 -30.714  1.00  0.00     0.038 C 
HETATM   14  C28 UNL     1      -7.650  45.452 -31.759  1.00  0.00     0.042 C 
HETATM   15  C29 UNL     1      -7.098  46.898 -31.746  1.00  0.00     0.067 C 
HETATM   16  C30 UNL     1      -7.839  47.744 -32.807  1.00  0.00     0.047 C 
HETATM   17  O5  UNL     1      -4.878  47.328 -29.571  1.00  0.00    -0.351 OA
ENDROOT
BRANCH   1  18
HETATM   18  C14 UNL     1      -4.339  49.608 -29.172  1.00  0.00     0.011 C 
HETATM   19  C12 UNL     1      -3.733  49.337 -27.997  1.00  0.00    -0.064 C 
HETATM   20  C13 UNL     1      -3.602  47.947 -27.430  1.00  0.00     0.048 C 
BRANCH  19  21
HETATM   21  C11 UNL     1      -3.150  50.447 -27.243  1.00  0.00     0.003 C 
HETATM   22  C10 UNL     1      -1.882  50.537 -26.809  1.00  0.00    -0.018 C 
BRANCH  22  23
HETATM   23  C9  UNL     1      -1.258  51.676 -26.028  1.00  0.00     0.050 C 
HETATM   24  C4  UNL     1      -0.537  51.358 -24.679  1.00  0.00     0.024 C 
HETATM   25  C5  UNL     1       0.430  52.545 -24.534  1.00  0.00     0.013 C 
HETATM   26  C6  UNL     1       0.989  52.716 -25.937  1.00  0.00     0.039 C 
HETATM   27  C7  UNL     1      -0.229  52.529 -26.852  1.00  0.00     0.062 C 
HETATM   28  C8  UNL     1       0.208  51.966 -28.204  1.00  0.00     0.046 C 
BRANCH  24  29
HETATM   29  C2  UNL     1      -1.464  51.125 -23.484  1.00  0.00    -0.088 C 
HETATM   30  C1  UNL     1      -1.952  49.925 -23.118  1.00  0.00     0.014 C 
HETATM   31  C3  UNL     1      -1.887  52.350 -22.712  1.00  0.00     0.043 C 
ENDBRANCH  24  29
BRANCH  27  32
HETATM   32  O1  UNL     1      -0.801  53.819 -27.125  1.00  0.00    -0.390 OA
HETATM   33  H14 UNL     1      -1.053  54.226 -26.279  1.00  0.00     0.210 HD
ENDBRANCH  27  32
ENDBRANCH  22  23
ENDBRANCH  19  21
ENDBRANCH   1  18
BRANCH  15  34
HETATM   34  O4  UNL     1      -5.748  46.817 -32.216  1.00  0.00    -0.389 OA
HETATM   35  H44 UNL     1      -5.749  46.450 -33.118  1.00  0.00     0.210 HD
ENDBRANCH  15  34
BRANCH  11  36
HETATM   36  C26 UNL     1     -11.692  47.668 -30.318  1.00  0.00     0.265 C 
HETATM   37  O3  UNL     1     -12.375  47.841 -29.318  1.00  0.00    -0.302 OA
ENDBRANCH  11  36
TORSDOF 7
ENDMDL
