MODEL 1
REMARK minimizedAffinity -9.36079025
REMARK CNNscore 0.146004349
REMARK CNNaffinity 7.52412558
REMARK  12 active torsions:
REMARK  status: ('A' for Active; 'I' for Inactive)
REMARK    1  A    between atoms: C2_2  and  C3_3 
REMARK    2  A    between atoms: C6_6  and  C7_7 
REMARK    3  A    between atoms: C7_7  and  C8_8 
REMARK    4  A    between atoms: C15_19  and  C16_20 
REMARK    5  A    between atoms: C16_20  and  C17_21 
REMARK    6  A    between atoms: C18_22  and  C19_23 
REMARK    7  A    between atoms: C21_25  and  C22_26 
REMARK    8  A    between atoms: C23_28  and  C24_29 
REMARK    9  A    between atoms: C27_34  and  C28_35 
REMARK   10  A    between atoms: C28_35  and  C29_36 
REMARK   11  A    between atoms: C29_36  and  C30_37 
REMARK   12  A    between atoms: C30_37  and  O5_39 
ROOT
HETATM    1  C8  UNL     1      -0.918  51.428 -18.119  1.00  0.00     0.016 C 
HETATM    2  N1  UNL     1      -2.023  51.487 -18.801  1.00  0.00    -0.362 N 
ATOM      3  H1  UNL     1      -2.207  52.084 -19.607  1.00  0.00     0.165 HD
HETATM    4  C9  UNL     1      -2.898  50.591 -18.231  1.00  0.00     0.023 C 
HETATM    5  C10 UNL     1      -4.007  50.140 -18.838  1.00  0.00    -0.000 A 
HETATM    6  C11 UNL     1      -4.966  49.047 -18.313  1.00  0.00     0.127 A 
HETATM    7  C12 UNL     1      -5.935  48.895 -19.531  1.00  0.00     0.166 A 
HETATM    8  O1  UNL     1      -6.876  48.114 -19.593  1.00  0.00    -0.292 OA
HETATM    9  C13 UNL     1      -5.544  49.846 -20.553  1.00  0.00     0.045 A 
HETATM   10  C14 UNL     1      -4.459  50.538 -20.112  1.00  0.00     0.055 A 
HETATM   11  N2  UNL     1      -4.110  51.485 -21.005  1.00  0.00    -0.357 N 
HETATM   12  C15 UNL     1      -4.966  51.368 -22.097  1.00  0.00     0.022 A 
HETATM   13  C25 UNL     1      -5.876  50.332 -21.830  1.00  0.00    -0.023 A 
HETATM   14  C26 UNL     1      -6.984  49.845 -22.691  1.00  0.00     0.051 C 
HETATM   15  C27 UNL     1      -2.403  50.112 -16.879  1.00  0.00     0.046 C 
HETATM   16  C31 UNL     1      -0.905  50.442 -16.975  1.00  0.00     0.041 C 
HETATM   17  C32 UNL     1      -0.062  49.222 -17.336  1.00  0.00     0.017 C 
HETATM   18  H10 UNL     1      -3.400  52.188 -20.875  1.00  0.00     0.166 HD
ENDROOT
BRANCH  15  19
HETATM   19  C28 UNL     1      -3.113  50.873 -15.743  1.00  0.00     0.022 C 
BRANCH  19  20
HETATM   20  C29 UNL     1      -2.260  51.038 -14.484  1.00  0.00     0.110 C 
BRANCH  20  21
HETATM   21  C30 UNL     1      -3.002  50.813 -13.195  1.00  0.00     0.139 C 
HETATM   22  O4  UNL     1      -3.406  49.734 -12.793  1.00  0.00    -0.650 OA
BRANCH  21  23
HETATM   23  O5  UNL     1      -3.141  51.919 -12.444  1.00  0.00    -0.776 OA
HETATM   24  H29 UNL     1      -3.563  51.599 -11.615  1.00  0.00     0.167 HD
ENDBRANCH  21  23
ENDBRANCH  20  21
ENDBRANCH  19  20
ENDBRANCH  15  19
BRANCH   1  25
HETATM   25  C7  UNL     1       0.299  52.232 -18.415  1.00  0.00     0.055 C 
BRANCH  25  26
HETATM   26  C6  UNL     1       0.563  52.633 -19.662  1.00  0.00     0.043 A 
HETATM   27  C4  UNL     1       0.433  51.931 -20.923  1.00  0.00    -0.019 A 
HETATM   28  C3  UNL     1       0.851  52.712 -21.949  1.00  0.00     0.039 A 
HETATM   29  C5  UNL     1      -0.083  50.528 -20.979  1.00  0.00     0.052 C 
HETATM   30  C33 UNL     1       1.256  54.017 -21.319  1.00  0.00     0.256 A 
HETATM   31  N4  UNL     1       1.034  53.865 -19.979  1.00  0.00    -0.322 N 
HETATM   32  O6  UNL     1       1.691  55.024 -21.855  1.00  0.00    -0.267 OA
HETATM   33  H34 UNL     1       1.231  54.566 -19.275  1.00  0.00     0.169 HD
BRANCH  28  34
HETATM   34  C2  UNL     1       0.858  52.412 -23.360  1.00  0.00     0.007 C 
HETATM   35  C1  UNL     1      -0.170  52.581 -24.203  1.00  0.00     0.012 C 
ENDBRANCH  28  34
ENDBRANCH  25  26
ENDBRANCH   1  25
BRANCH  12  36
HETATM   36  C16 UNL     1      -4.857  52.307 -23.267  1.00  0.00     0.115 C 
BRANCH  36  37
HETATM   37  C17 UNL     1      -4.021  51.757 -24.383  1.00  0.00     0.022 A 
HETATM   38  C18 UNL     1      -3.644  50.455 -24.692  1.00  0.00    -0.020 A 
HETATM   39  C21 UNL     1      -2.824  50.518 -25.875  1.00  0.00     0.040 A 
HETATM   40  C23 UNL     1      -2.774  51.849 -26.268  1.00  0.00     0.084 A 
HETATM   41  N3  UNL     1      -3.524  52.572 -25.368  1.00  0.00    -0.356 N 
HETATM   42  H20 UNL     1      -3.714  53.566 -25.455  1.00  0.00     0.166 HD
BRANCH  38  43
HETATM   43  C19 UNL     1      -4.018  49.209 -23.940  1.00  0.00     0.037 C 
HETATM   44  C20 UNL     1      -4.948  48.312 -24.744  1.00  0.00     0.010 C 
ENDBRANCH  38  43
BRANCH  39  45
HETATM   45  C22 UNL     1      -2.176  49.411 -26.579  1.00  0.00     0.273 C 
HETATM   46  O2  UNL     1      -2.776  48.605 -27.286  1.00  0.00    -0.301 OA
ENDBRANCH  39  45
BRANCH  40  47
HETATM   47  C24 UNL     1      -2.123  52.465 -27.401  1.00  0.00     0.288 C 
HETATM   48  O3  UNL     1      -2.139  53.663 -27.666  1.00  0.00    -0.300 OA
ENDBRANCH  40  47
ENDBRANCH  36  37
ENDBRANCH  12  36
TORSDOF 12
ENDMDL
