MODEL 1
REMARK minimizedAffinity -7.93890381
REMARK  12 active torsions:
REMARK  status: ('A' for Active; 'I' for Inactive)
REMARK    1  A    between atoms: C4_5  and  O2_6 
REMARK    2  A    between atoms: C8_11  and  O4_12 
REMARK    3  A    between atoms: O4_12  and  C9_13 
REMARK    4  A    between atoms: C9_13  and  C10_15 
REMARK    5  A    between atoms: C10_15  and  O6_16 
REMARK    6  A    between atoms: C10_15  and  C11_17 
REMARK    7  A    between atoms: C10_15  and  C12_19 
REMARK    8  A    between atoms: C11_17  and  O7_18 
REMARK    9  A    between atoms: C12_19  and  C13_20 
REMARK   10  A    between atoms: C13_20  and  C15_22 
REMARK   11  A    between atoms: C15_22  and  C16_23 
REMARK   12  A    between atoms: C16_23  and  C18_25 
ROOT
HETATM    1  C1  UNL     1      -2.897  50.264 -27.483  1.00  0.00     0.017 C 
HETATM    2  C2  UNL     1      -2.852  50.914 -26.312  1.00  0.00    -0.056 C 
HETATM    3  C3  UNL     1      -3.011  52.376 -26.111  1.00  0.00     0.205 C 
HETATM    4  O1  UNL     1      -2.158  52.710 -25.018  1.00  0.00    -0.348 OA
HETATM    5  C4  UNL     1      -1.960  51.544 -24.195  1.00  0.00     0.201 C 
HETATM    6  C6  UNL     1      -2.611  51.780 -22.857  1.00  0.00     0.223 A 
HETATM    7  O3  UNL     1      -4.042  51.821 -22.886  1.00  0.00    -0.360 OA
HETATM    8  C7  UNL     1      -3.439  50.720 -22.157  1.00  0.00     0.127 A 
HETATM    9  C8  UNL     1      -3.765  50.825 -20.689  1.00  0.00     0.170 C 
HETATM   10  C20 UNL     1      -5.188  50.319 -20.400  1.00  0.00     0.036 C 
HETATM   11  C21 UNL     1      -5.860  49.646 -21.601  1.00  0.00     0.007 C 
HETATM   12  C22 UNL     1      -4.932  48.653 -22.327  1.00  0.00    -0.007 C 
HETATM   13  C23 UNL     1      -4.733  47.413 -21.440  1.00  0.00     0.011 C 
HETATM   14  C24 UNL     1      -3.610  49.357 -22.834  1.00  0.00    -0.003 C 
HETATM   15  C25 UNL     1      -2.354  48.491 -22.591  1.00  0.00     0.019 C 
HETATM   16  C26 UNL     1      -3.732  49.595 -24.371  1.00  0.00     0.027 C 
HETATM   17  C27 UNL     1      -2.512  50.316 -24.979  1.00  0.00     0.082 C 
ENDROOT
BRANCH   9  18
HETATM   18  O4  UNL     1      -2.840  50.048 -19.904  1.00  0.00    -0.310 OA
BRANCH  18  19
HETATM   19  C9  UNL     1      -2.547  50.535 -18.671  1.00  0.00     0.296 C 
HETATM   20  O5  UNL     1      -2.950  51.604 -18.216  1.00  0.00    -0.262 OA
BRANCH  19  21
HETATM   21  C10 UNL     1      -1.646  49.597 -17.850  1.00  0.00     0.166 C 
BRANCH  21  22
HETATM   22  O6  UNL     1      -1.736  48.270 -18.415  1.00  0.00    -0.377 OA
HETATM   23  H10 UNL     1      -2.599  48.222 -18.877  1.00  0.00     0.211 HD
ENDBRANCH  21  22
BRANCH  21  24
HETATM   24  C11 UNL     1      -2.230  49.480 -16.425  1.00  0.00     0.212 C 
BRANCH  24  25
HETATM   25  O7  UNL     1      -3.651  49.411 -16.380  1.00  0.00    -0.397 OA
HETATM   26  H13 UNL     1      -3.989  50.323 -16.429  1.00  0.00     0.209 HD
ENDBRANCH  24  25
ENDBRANCH  21  24
BRANCH  21  27
HETATM   27  C12 UNL     1      -0.162  50.023 -17.856  1.00  0.00     0.055 C 
BRANCH  27  28
HETATM   28  C13 UNL     1       0.179  51.460 -17.367  1.00  0.00    -0.015 C 
HETATM   29  C14 UNL     1       1.004  51.342 -16.077  1.00  0.00     0.010 C 
BRANCH  28  30
HETATM   30  C15 UNL     1       0.902  52.314 -18.430  1.00  0.00     0.008 C 
BRANCH  30  31
HETATM   31  C16 UNL     1       0.105  52.638 -19.718  1.00  0.00    -0.019 C 
HETATM   32  C17 UNL     1       0.345  51.590 -20.808  1.00  0.00     0.010 C 
BRANCH  31  33
HETATM   33  C18 UNL     1       0.496  54.054 -20.200  1.00  0.00    -0.000 C 
HETATM   34  C19 UNL     1       1.635  54.068 -21.209  1.00  0.00     0.005 C 
ENDBRANCH  31  33
ENDBRANCH  30  31
ENDBRANCH  28  30
ENDBRANCH  27  28
ENDBRANCH  21  27
ENDBRANCH  19  21
ENDBRANCH  18  19
ENDBRANCH   9  18
BRANCH   5  35
HETATM   35  O2  UNL     1      -0.555  51.290 -23.993  1.00  0.00    -0.357 OA
HETATM   36  C5  UNL     1       0.312  52.189 -24.669  1.00  0.00     0.205 C 
ENDBRANCH   5  35
TORSDOF 12
ENDMDL
