MODEL 1
REMARK minimizedAffinity -8.13654423
REMARK CNNscore 0.572208822
REMARK CNNaffinity 7.37817907
REMARK  19 active torsions:
REMARK  status: ('A' for Active; 'I' for Inactive)
REMARK    1  A    between atoms: C2_2  and  C3_3 
REMARK    2  A    between atoms: C3_3  and  C5_5 
REMARK    3  A    between atoms: C5_5  and  N1_6 
REMARK    4  A    between atoms: C5_5  and  C37_46 
REMARK       I    between atoms: N1_6  and  C6_7 
REMARK    5  A    between atoms: C6_7  and  C7_9 
REMARK    6  A    between atoms: C7_9  and  C8_10 
REMARK    7  A    between atoms: C8_10  and  C9_11 
REMARK    8  A    between atoms: C9_11  and  C10_12 
REMARK    9  A    between atoms: C10_12  and  C11_13 
REMARK   10  A    between atoms: C11_13  and  N2_14 
REMARK       I    between atoms: N2_14  and  C12_15 
REMARK   11  A    between atoms: C12_15  and  C13_17 
REMARK   12  A    between atoms: C13_17  and  C14_18 
REMARK   13  A    between atoms: C14_18  and  C15_19 
REMARK   14  A    between atoms: C15_19  and  O4_21 
REMARK   15  A    between atoms: O4_21  and  C16_22 
REMARK   16  A    between atoms: C16_22  and  C17_23 
REMARK   17  A    between atoms: C17_23  and  C18_25 
REMARK   18  A    between atoms: C18_25  and  O6_26 
REMARK   19  A    between atoms: C37_46  and  O9_48 
ROOT
HETATM    1  C15 UNL     1      -9.361   7.840  15.317  1.00  0.00     0.259 C 
HETATM    2  O3  UNL     1      -9.233   9.046  15.152  1.00  0.00    -0.265 OA
ENDROOT
BRANCH   1   3
HETATM    3  C14 UNL     1     -10.192   6.953  14.420  1.00  0.00     0.120 C 
BRANCH   3   4
HETATM    4  C13 UNL     1     -11.063   7.708  13.418  1.00  0.00     0.112 C 
BRANCH   4   5
HETATM    5  C12 UNL     1     -12.543   7.495  13.670  1.00  0.00     0.217 C 
HETATM    6  N2  UNL     1     -12.806   6.567  14.658  1.00  0.00    -0.361 N 
HETATM    7  H22 UNL     1     -12.060   6.355  15.310  1.00  0.00     0.162 HD
HETATM    8  O2  UNL     1     -13.420   8.069  13.034  1.00  0.00    -0.274 OA
BRANCH   6   9
HETATM    9  C11 UNL     1     -14.167   6.383  15.125  1.00  0.00     0.122 C 
BRANCH   9  10
HETATM   10  C10 UNL     1     -14.938   5.324  14.339  1.00  0.00     0.020 C 
BRANCH  10  11
HETATM   11  C9  UNL     1     -15.697   4.311  15.203  1.00  0.00     0.002 C 
BRANCH  11  12
HETATM   12  C8  UNL     1     -16.036   2.998  14.488  1.00  0.00     0.009 C 
BRANCH  12  13
HETATM   13  C7  UNL     1     -15.061   1.877  14.858  1.00  0.00     0.103 C 
BRANCH  13  14
HETATM   14  C6  UNL     1     -15.738   0.540  15.111  1.00  0.00     0.218 C 
HETATM   15  N1  UNL     1     -15.338  -0.438  14.225  1.00  0.00    -0.346 N 
HETATM   16  H11 UNL     1     -14.435  -0.294  13.786  1.00  0.00     0.163 HD
HETATM   17  O1  UNL     1     -16.540   0.346  16.017  1.00  0.00    -0.274 OA
BRANCH  15  18
HETATM   18  C5  UNL     1     -15.740  -1.838  14.426  1.00  0.00     0.186 C 
BRANCH  18  19
HETATM   19  C3  UNL     1     -15.643  -2.632  13.097  1.00  0.00     0.014 C 
HETATM   20  C4  UNL     1     -16.772  -3.667  13.005  1.00  0.00     0.012 C 
BRANCH  19  21
HETATM   21  C2  UNL     1     -14.256  -3.276  12.870  1.00  0.00     0.002 C 
HETATM   22  C1  UNL     1     -13.710  -3.061  11.463  1.00  0.00     0.005 C 
ENDBRANCH  19  21
ENDBRANCH  18  19
BRANCH  18  23
HETATM   23  C37 UNL     1     -14.869  -2.424  15.541  1.00  0.00     0.163 C 
HETATM   24  O8  UNL     1     -13.659  -2.594  15.495  1.00  0.00    -0.648 OA
BRANCH  23  25
HETATM   25  O9  UNL     1     -15.571  -2.796  16.630  1.00  0.00    -0.775 OA
HETATM   26  H56 UNL     1     -14.892  -3.124  17.257  1.00  0.00     0.167 HD
ENDBRANCH  23  25
ENDBRANCH  18  23
ENDBRANCH  15  18
ENDBRANCH  13  14
ENDBRANCH  12  13
ENDBRANCH  11  12
ENDBRANCH  10  11
ENDBRANCH   9  10
ENDBRANCH   6   9
ENDBRANCH   4   5
ENDBRANCH   3   4
ENDBRANCH   1   3
BRANCH   1  27
HETATM   27  O4  UNL     1      -8.882   7.151  16.383  1.00  0.00    -0.314 OA
BRANCH  27  28
HETATM   28  C16 UNL     1      -7.468   6.995  16.407  1.00  0.00     0.260 C 
BRANCH  28  29
HETATM   29  C17 UNL     1      -6.736   6.265  15.273  1.00  0.00     0.185 C 
HETATM   30  O5  UNL     1      -6.809   5.033  15.193  1.00  0.00    -0.292 OA
BRANCH  29  31
HETATM   31  C18 UNL     1      -5.807   7.087  14.347  1.00  0.00     0.128 C 
HETATM   32  C19 UNL     1      -5.730   8.555  14.849  1.00  0.00     0.047 C 
HETATM   33  C20 UNL     1      -4.325   9.070  14.487  1.00  0.00     0.009 C 
HETATM   34  C21 UNL     1      -3.651   7.915  13.739  1.00  0.00     0.002 C 
HETATM   35  C22 UNL     1      -2.107   7.899  13.733  1.00  0.00    -0.004 C 
HETATM   36  C35 UNL     1      -4.297   6.649  14.347  1.00  0.00    -0.002 C 
HETATM   37  C23 UNL     1      -1.562   9.079  12.896  1.00  0.00     0.010 C 
HETATM   38  C32 UNL     1      -1.561   6.489  13.281  1.00  0.00     0.002 C 
HETATM   39  C24 UNL     1      -1.301   8.702  11.445  1.00  0.00     0.035 C 
HETATM   40  C25 UNL     1      -0.313   7.571  11.320  1.00  0.00    -0.068 C 
HETATM   41  C26 UNL     1       0.432   7.458  10.204  1.00  0.00     0.053 C 
HETATM   42  C30 UNL     1      -0.208   6.583  12.480  1.00  0.00    -0.016 C 
HETATM   43  C27 UNL     1       1.403   6.350  10.012  1.00  0.00     0.149 C 
HETATM   44  O7  UNL     1       2.120   6.348   9.013  1.00  0.00    -0.293 OA
HETATM   45  C28 UNL     1       1.499   5.276  11.069  1.00  0.00     0.084 C 
HETATM   46  C29 UNL     1       0.220   5.202  11.899  1.00  0.00     0.022 C 
HETATM   47  C31 UNL     1       0.911   7.040  13.458  1.00  0.00     0.020 C 
HETATM   48  C33 UNL     1      -2.673   5.653  12.593  1.00  0.00     0.007 C 
HETATM   49  C34 UNL     1      -3.924   5.436  13.468  1.00  0.00     0.013 C 
HETATM   50  C36 UNL     1      -3.786   6.375  15.790  1.00  0.00     0.019 C 
BRANCH  31  51
HETATM   51  O6  UNL     1      -6.357   7.190  13.030  1.00  0.00    -0.381 OA
HETATM   52  H29 UNL     1      -5.787   6.741  12.383  1.00  0.00     0.211 HD
ENDBRANCH  31  51
ENDBRANCH  29  31
ENDBRANCH  28  29
ENDBRANCH  27  28
ENDBRANCH   1  27
TORSDOF 19
ENDMDL
