MODEL 1
REMARK minimizedAffinity -7.37024307
REMARK CNNscore 0.802739561
REMARK CNNaffinity 6.80337906
REMARK  5 active torsions:
REMARK  status: ('A' for Active; 'I' for Inactive)
REMARK    1  A    between atoms: C2_2  and  C4_4 
REMARK    2  A    between atoms: C7_7  and  C8_8 
REMARK    3  A    between atoms: C8_8  and  O2_10 
REMARK    4  A    between atoms: C11_13  and  C12_14 
REMARK    5  A    between atoms: C12_14  and  O4_16 
ROOT
HETATM    1  C4  UNL     1       2.857  56.181  -8.840  1.00  0.00     0.019 C 
HETATM    2  C5  UNL     1       3.436  56.016  -7.433  1.00  0.00     0.011 C 
HETATM    3  C6  UNL     1       2.336  56.592  -6.553  1.00  0.00     0.021 C 
HETATM    4  C7  UNL     1       1.019  56.039  -7.150  1.00  0.00     0.050 C 
HETATM    5  C9  UNL     1       0.647  54.731  -6.434  1.00  0.00     0.022 C 
HETATM    6  C10 UNL     1      -0.363  53.872  -7.191  1.00  0.00     0.023 C 
HETATM    7  C11 UNL     1       0.055  53.514  -8.637  1.00  0.00     0.057 C 
HETATM    8  C13 UNL     1       0.493  54.800  -9.419  1.00  0.00     0.011 C 
HETATM    9  C14 UNL     1       0.939  54.461 -10.848  1.00  0.00     0.007 C 
HETATM   10  C15 UNL     1      -0.111  53.678 -11.649  1.00  0.00     0.006 C 
HETATM   11  C16 UNL     1      -0.647  52.433 -10.904  1.00  0.00     0.003 C 
HETATM   12  C17 UNL     1      -1.576  51.472 -11.770  1.00  0.00    -0.035 C 
HETATM   13  C18 UNL     1      -2.817  52.211 -12.321  1.00  0.00     0.016 C 
HETATM   14  C19 UNL     1      -0.752  50.953 -12.989  1.00  0.00     0.017 C 
HETATM   15  C20 UNL     1      -1.418  49.829 -13.770  1.00  0.00     0.080 C 
HETATM   16  C21 UNL     1      -1.812  48.680 -12.875  1.00  0.00     0.135 C 
HETATM   17  O5  UNL     1      -1.582  47.523 -13.234  1.00  0.00    -0.297 OA
HETATM   18  C22 UNL     1      -2.597  49.006 -11.593  1.00  0.00     0.017 C 
HETATM   19  C23 UNL     1      -4.072  49.215 -11.967  1.00  0.00     0.023 C 
HETATM   20  C24 UNL     1      -2.533  47.755 -10.679  1.00  0.00     0.023 C 
HETATM   21  C25 UNL     1      -1.917  50.222 -10.873  1.00  0.00     0.009 C 
HETATM   22  C26 UNL     1      -2.620  50.648  -9.570  1.00  0.00     0.007 C 
HETATM   23  C27 UNL     1      -1.740  51.568  -8.719  1.00  0.00     0.011 C 
HETATM   24  C28 UNL     1      -1.181  52.818  -9.464  1.00  0.00    -0.022 C 
HETATM   25  C29 UNL     1      -2.399  53.796  -9.570  1.00  0.00     0.017 C 
HETATM   26  C30 UNL     1       1.321  55.904  -8.685  1.00  0.00     0.018 C 
ENDROOT
BRANCH   4  27
HETATM   27  C8  UNL     1      -0.127  57.027  -6.922  1.00  0.00     0.149 C 
HETATM   28  O1  UNL     1      -0.786  57.584  -7.785  1.00  0.00    -0.649 OA
BRANCH  27  29
HETATM   29  O2  UNL     1      -0.439  57.206  -5.624  1.00  0.00    -0.776 OA
HETATM   30  H11 UNL     1      -1.198  57.825  -5.645  1.00  0.00     0.167 HD
ENDBRANCH  27  29
ENDBRANCH   4  27
BRANCH   1  31
HETATM   31  C2  UNL     1       3.699  55.686  -9.999  1.00  0.00    -0.088 C 
HETATM   32  C1  UNL     1       3.686  56.345 -11.173  1.00  0.00     0.014 C 
HETATM   33  C3  UNL     1       4.649  54.536  -9.813  1.00  0.00     0.043 C 
ENDBRANCH   1  31
BRANCH   7  34
HETATM   34  C12 UNL     1       1.236  52.516  -8.512  1.00  0.00     0.149 C 
HETATM   35  O3  UNL     1       2.221  52.410  -9.224  1.00  0.00    -0.649 OA
BRANCH  34  36
HETATM   36  O4  UNL     1       1.107  51.635  -7.510  1.00  0.00    -0.776 OA
HETATM   37  H16 UNL     1       1.906  51.073  -7.602  1.00  0.00     0.167 HD
ENDBRANCH  34  36
ENDBRANCH   7  34
TORSDOF 5
ENDMDL
