MODEL 1
REMARK minimizedAffinity -6.86914492
REMARK CNNscore 0.779872894
REMARK CNNaffinity 6.69662619
REMARK  6 active torsions:
REMARK  status: ('A' for Active; 'I' for Inactive)
REMARK    1  A    between atoms: C2_2  and  O2_4 
REMARK    2  A    between atoms: O2_4  and  C3_5 
REMARK    3  A    between atoms: C19_23  and  C20_24 
REMARK    4  A    between atoms: C26_32  and  O7_33 
REMARK    5  A    between atoms: C27_34  and  C28_35 
REMARK    6  A    between atoms: C31_40  and  O10_41 
ROOT
HETATM    1  C3  UNL     1       7.316  55.727  -3.755  1.00  0.00     0.201 C 
HETATM    2  C4  UNL     1       8.386  56.529  -2.996  1.00  0.00     0.070 C 
HETATM    3  C5  UNL     1       8.159  58.042  -3.075  1.00  0.00     0.123 C 
HETATM    4  C6  UNL     1       9.449  58.807  -2.807  1.00  0.00     0.040 C 
HETATM    5  O3  UNL     1       7.694  58.399  -4.372  1.00  0.00    -0.351 OA
HETATM    6  C7  UNL     1       6.372  57.917  -4.660  1.00  0.00     0.325 C 
HETATM    7  O4  UNL     1       6.231  57.937  -6.084  1.00  0.00    -0.347 OA
HETATM    8  C8  UNL     1       5.355  56.952  -6.631  1.00  0.00     0.158 C 
HETATM    9  C9  UNL     1       4.653  57.567  -7.843  1.00  0.00     0.069 C 
HETATM   10  C10 UNL     1       3.646  56.623  -8.460  1.00  0.00    -0.065 C 
HETATM   11  C11 UNL     1       3.684  56.345  -9.776  1.00  0.00    -0.022 C 
HETATM   12  C12 UNL     1       2.713  55.448 -10.485  1.00  0.00     0.035 C 
HETATM   13  C13 UNL     1       1.445  55.153  -9.659  1.00  0.00     0.030 C 
HETATM   14  C14 UNL     1       1.840  54.821  -8.198  1.00  0.00     0.012 C 
HETATM   15  C15 UNL     1       0.658  54.281  -7.369  1.00  0.00     0.007 C 
HETATM   16  C16 UNL     1      -0.697  54.449  -8.043  1.00  0.00     0.013 C 
HETATM   17  C17 UNL     1      -0.817  53.914  -9.505  1.00  0.00    -0.005 C 
HETATM   18  C18 UNL     1      -1.986  54.715 -10.132  1.00  0.00     0.019 C 
HETATM   19  C19 UNL     1      -1.094  52.370  -9.513  1.00  0.00     0.028 C 
HETATM   20  C24 UNL     1       0.297  51.728  -9.546  1.00  0.00     0.013 C 
HETATM   21  C25 UNL     1       1.174  52.663 -10.364  1.00  0.00     0.040 C 
HETATM   22  C26 UNL     1       0.533  54.071 -10.295  1.00  0.00     0.070 C 
HETATM   23  C27 UNL     1       2.619  56.003  -7.513  1.00  0.00     0.043 C 
HETATM   24  C29 UNL     1       3.336  55.467  -6.247  1.00  0.00     0.056 C 
HETATM   25  C30 UNL     1       4.332  56.445  -5.613  1.00  0.00     0.156 C 
HETATM   26  O9  UNL     1       5.031  55.741  -4.581  1.00  0.00    -0.341 OA
HETATM   27  C31 UNL     1       6.023  56.551  -3.941  1.00  0.00     0.241 C 
ENDROOT
BRANCH  19  28
HETATM   28  C20 UNL     1      -1.980  51.840 -10.615  1.00  0.00    -0.045 A 
HETATM   29  C21 UNL     1      -1.709  51.636 -11.905  1.00  0.00     0.087 A 
HETATM   30  C22 UNL     1      -2.923  51.102 -12.520  1.00  0.00     0.283 A 
HETATM   31  O5  UNL     1      -3.030  50.804 -13.696  1.00  0.00    -0.260 OA
HETATM   32  O6  UNL     1      -3.892  50.986 -11.574  1.00  0.00    -0.314 OA
HETATM   33  C23 UNL     1      -3.380  51.444 -10.324  1.00  0.00     0.213 A 
ENDBRANCH  19  28
BRANCH  22  34
HETATM   34  O7  UNL     1       0.238  54.471 -11.640  1.00  0.00    -0.389 OA
HETATM   35  H35 UNL     1       1.025  54.338 -12.195  1.00  0.00     0.210 HD
ENDBRANCH  22  34
BRANCH  23  36
HETATM   36  C28 UNL     1       1.638  57.131  -7.154  1.00  0.00     0.245 C 
HETATM   37  O8  UNL     1       1.179  57.316  -6.030  1.00  0.00    -0.306 OA
ENDBRANCH  23  36
BRANCH  27  38
HETATM   38  O10 UNL     1       5.500  56.815  -2.627  1.00  0.00    -0.360 OA
HETATM   39  H40 UNL     1       4.616  57.192  -2.770  1.00  0.00     0.213 HD
ENDBRANCH  27  38
BRANCH   1  40
HETATM   40  O2  UNL     1       7.819  55.337  -5.056  1.00  0.00    -0.310 OA
BRANCH  40  41
HETATM   41  C2  UNL     1       7.668  54.029  -5.389  1.00  0.00     0.255 C 
HETATM   42  C1  UNL     1       8.523  53.175  -4.505  1.00  0.00     0.126 C 
HETATM   43  O1  UNL     1       6.934  53.595  -6.263  1.00  0.00    -0.266 OA
ENDBRANCH  40  41
ENDBRANCH   1  40
TORSDOF 6
ENDMDL
