MODEL 1
REMARK minimizedAffinity -7.05177021
REMARK CNNscore 0.778179109
REMARK CNNaffinity 7.10708094
REMARK  6 active torsions:
REMARK  status: ('A' for Active; 'I' for Inactive)
REMARK    1  A    between atoms: C2_2  and  C30_31 
REMARK    2  A    between atoms: C3_3  and  C4_4 
REMARK    3  A    between atoms: C4_4  and  C5_5 
REMARK    4  A    between atoms: C5_5  and  C6_6 
REMARK    5  A    between atoms: C6_6  and  C8_8 
REMARK    6  A    between atoms: C30_31  and  O2_32 
ROOT
HETATM    1  C8  UNL     1       5.304  55.919  -8.566  1.00  0.00    -0.002 C 
HETATM    2  C9  UNL     1       4.490  57.099  -7.975  1.00  0.00     0.007 C 
HETATM    3  C10 UNL     1       3.000  56.803  -8.259  1.00  0.00     0.015 C 
HETATM    4  C11 UNL     1       3.007  55.619  -9.251  1.00  0.00    -0.013 C 
HETATM    5  C12 UNL     1       3.181  56.256 -10.668  1.00  0.00     0.021 C 
HETATM    6  C13 UNL     1       1.773  54.730  -9.346  1.00  0.00    -0.070 C 
HETATM    7  C14 UNL     1       0.534  55.192  -9.105  1.00  0.00    -0.022 C 
HETATM    8  C15 UNL     1      -0.722  54.410  -9.332  1.00  0.00     0.034 C 
HETATM    9  C16 UNL     1      -0.525  52.920  -9.698  1.00  0.00     0.013 C 
HETATM   10  C17 UNL     1      -1.842  52.248 -10.245  1.00  0.00     0.018 C 
HETATM   11  C18 UNL     1      -2.720  53.165 -11.124  1.00  0.00     0.023 C 
HETATM   12  C19 UNL     1      -2.715  51.783  -9.059  1.00  0.00     0.023 C 
HETATM   13  C20 UNL     1      -1.488  50.994 -11.049  1.00  0.00     0.135 C 
HETATM   14  O1  UNL     1      -2.221  50.541 -11.930  1.00  0.00    -0.297 OA
HETATM   15  C21 UNL     1      -0.236  50.262 -10.650  1.00  0.00     0.080 C 
HETATM   16  C22 UNL     1       0.996  51.143 -10.760  1.00  0.00     0.017 C 
HETATM   17  C23 UNL     1       0.763  52.675 -10.572  1.00  0.00    -0.031 C 
HETATM   18  C24 UNL     1       0.627  53.328 -11.969  1.00  0.00     0.016 C 
HETATM   19  C25 UNL     1       1.999  53.281  -9.783  1.00  0.00     0.024 C 
HETATM   20  C26 UNL     1       3.382  53.047 -10.452  1.00  0.00     0.010 C 
HETATM   21  C27 UNL     1       4.599  53.699  -9.749  1.00  0.00     0.011 C 
HETATM   22  C28 UNL     1       4.231  54.794  -8.727  1.00  0.00    -0.029 C 
HETATM   23  C29 UNL     1       3.985  54.118  -7.344  1.00  0.00     0.016 C 
ENDROOT
BRANCH   1  24
HETATM   24  C6  UNL     1       6.649  55.566  -7.861  1.00  0.00    -0.014 C 
HETATM   25  C7  UNL     1       6.988  54.070  -7.824  1.00  0.00     0.010 C 
BRANCH  24  26
HETATM   26  C5  UNL     1       6.638  56.161  -6.424  1.00  0.00     0.008 C 
BRANCH  26  27
HETATM   27  C4  UNL     1       7.897  55.859  -5.605  1.00  0.00     0.028 C 
BRANCH  27  28
HETATM   28  C3  UNL     1       8.652  57.113  -5.251  1.00  0.00    -0.022 C 
HETATM   29  C2  UNL     1       9.985  57.224  -5.075  1.00  0.00    -0.064 C 
HETATM   30  C1  UNL     1      10.614  58.556  -4.764  1.00  0.00     0.045 C 
BRANCH  29  31
HETATM   31  C30 UNL     1      10.943  56.063  -5.155  1.00  0.00     0.197 C 
BRANCH  31  32
HETATM   32  O2  UNL     1      12.284  56.528  -5.072  1.00  0.00    -0.397 OA
HETATM   33  H48 UNL     1      12.274  57.352  -4.557  1.00  0.00     0.209 HD
ENDBRANCH  31  32
ENDBRANCH  29  31
ENDBRANCH  27  28
ENDBRANCH  26  27
ENDBRANCH  24  26
ENDBRANCH   1  24
TORSDOF 6
ENDMDL
