MODEL 1
REMARK minimizedAffinity -10.5875998
REMARK CNNscore 0.659506381
REMARK CNNaffinity 7.83177185
REMARK  11 active torsions:
REMARK  status: ('A' for Active; 'I' for Inactive)
REMARK    1  A    between atoms: C2_2  and  O2_4 
REMARK    2  A    between atoms: O2_4  and  C3_5 
REMARK    3  A    between atoms: C4_6  and  O3_7 
REMARK    4  A    between atoms: O3_7  and  C5_8 
REMARK    5  A    between atoms: C15_18  and  C16_19 
REMARK    6  A    between atoms: C20_23  and  C21_24 
REMARK    7  A    between atoms: C21_24  and  O4_27 
REMARK    8  A    between atoms: C24_29  and  O6_30 
REMARK    9  A    between atoms: C30_36  and  O7_37 
REMARK   10  A    between atoms: C36_44  and  O9_45 
REMARK   11  A    between atoms: C37_46  and  O10_47 
ROOT
HETATM    1  C5  UNL     1       1.790   7.729  11.598  1.00  0.00     0.133 C 
HETATM    2  C6  UNL     1       1.393   8.492  12.867  1.00  0.00     0.034 C 
HETATM    3  C7  UNL     1       0.239   7.847  13.605  1.00  0.00     0.013 C 
HETATM    4  C8  UNL     1      -0.961   7.662  12.717  1.00  0.00    -0.025 A 
HETATM    5  C9  UNL     1      -2.080   8.662  12.673  1.00  0.00     0.021 A 
HETATM    6  C10 UNL     1      -2.300   7.344  13.408  1.00  0.00    -0.027 A 
HETATM    7  C11 UNL     1      -2.514   7.506  14.906  1.00  0.00     0.011 C 
HETATM    8  C12 UNL     1      -4.008   7.532  15.315  1.00  0.00     0.011 C 
HETATM    9  C13 UNL     1      -4.966   6.912  14.272  1.00  0.00    -0.028 C 
HETATM   10  C14 UNL     1      -5.341   8.000  13.224  1.00  0.00     0.016 C 
HETATM   11  C15 UNL     1      -6.298   6.280  14.811  1.00  0.00     0.057 C 
HETATM   12  C24 UNL     1      -6.668   5.251  13.692  1.00  0.00     0.126 C 
HETATM   13  C25 UNL     1      -5.399   5.059  12.819  1.00  0.00     0.042 C 
HETATM   14  C26 UNL     1      -4.241   5.662  13.639  1.00  0.00    -0.029 C 
HETATM   15  C27 UNL     1      -3.827   4.577  14.683  1.00  0.00     0.016 C 
HETATM   16  C28 UNL     1      -3.005   6.120  12.777  1.00  0.00     0.006 C 
HETATM   17  C29 UNL     1      -1.934   5.012  12.566  1.00  0.00     0.038 C 
HETATM   18  C30 UNL     1      -0.769   5.405  11.628  1.00  0.00     0.124 C 
HETATM   19  C31 UNL     1      -0.681   6.927  11.395  1.00  0.00     0.034 C 
HETATM   20  C32 UNL     1       0.569   7.501  10.648  1.00  0.00    -0.015 C 
HETATM   21  C33 UNL     1       1.003   6.566   9.491  1.00  0.00     0.018 C 
HETATM   22  C34 UNL     1       0.162   8.854   9.990  1.00  0.00     0.018 C 
ENDROOT
BRANCH   1  23
HETATM   23  O3  UNL     1       2.793   8.432  10.841  1.00  0.00    -0.352 OA
BRANCH  23  24
HETATM   24  C4  UNL     1       3.906   7.668  10.369  1.00  0.00     0.292 C 
HETATM   25  C3  UNL     1       5.171   8.265  11.036  1.00  0.00     0.218 C 
HETATM   26  C37 UNL     1       6.399   7.350  10.869  1.00  0.00     0.183 C 
HETATM   27  C36 UNL     1       6.065   5.870  11.078  1.00  0.00     0.173 C 
HETATM   28  C35 UNL     1       4.816   5.488  10.305  1.00  0.00     0.205 C 
HETATM   29  O8  UNL     1       3.728   6.301  10.720  1.00  0.00    -0.356 OA
BRANCH  25  30
HETATM   30  O2  UNL     1       5.402   9.552  10.384  1.00  0.00    -0.309 OA
BRANCH  30  31
HETATM   31  C2  UNL     1       6.361  10.353  10.896  1.00  0.00     0.255 C 
HETATM   32  C1  UNL     1       5.805  11.208  11.987  1.00  0.00     0.126 C 
HETATM   33  O1  UNL     1       7.525  10.383  10.518  1.00  0.00    -0.266 OA
ENDBRANCH  30  31
ENDBRANCH  25  30
BRANCH  26  34
HETATM   34  O10 UNL     1       7.455   7.647  11.809  1.00  0.00    -0.390 OA
HETATM   35  H60 UNL     1       7.407   8.598  12.048  1.00  0.00     0.210 HD
ENDBRANCH  26  34
BRANCH  27  36
HETATM   36  O9  UNL     1       7.169   5.071  10.652  1.00  0.00    -0.391 OA
HETATM   37  H58 UNL     1       7.902   5.299  11.264  1.00  0.00     0.210 HD
ENDBRANCH  27  36
ENDBRANCH  23  24
ENDBRANCH   1  23
BRANCH  18  38
HETATM   38  O7  UNL     1       0.450   4.878  12.146  1.00  0.00    -0.395 OA
HETATM   39  H47 UNL     1       0.318   3.919  12.245  1.00  0.00     0.210 HD
ENDBRANCH  18  38
BRANCH  11  40
HETATM   40  C16 UNL     1      -7.446   7.148  15.417  1.00  0.00     0.065 C 
HETATM   41  C17 UNL     1      -7.408   7.060  16.958  1.00  0.00     0.046 C 
HETATM   42  C18 UNL     1      -7.579   8.604  14.988  1.00  0.00     0.041 C 
HETATM   43  C19 UNL     1      -9.046   8.914  15.170  1.00  0.00     0.038 C 
HETATM   44  C20 UNL     1      -9.742   7.562  15.081  1.00  0.00     0.156 C 
HETATM   45  O5  UNL     1      -8.709   6.550  15.010  1.00  0.00    -0.372 OA
BRANCH  44  46
HETATM   46  C21 UNL     1     -10.752   7.374  13.926  1.00  0.00     0.076 C 
HETATM   47  C22 UNL     1     -11.958   6.539  14.365  1.00  0.00     0.048 C 
HETATM   48  C23 UNL     1     -11.213   8.689  13.303  1.00  0.00     0.048 C 
BRANCH  46  49
HETATM   49  O4  UNL     1     -10.094   6.635  12.885  1.00  0.00    -0.388 OA
HETATM   50  H35 UNL     1      -9.212   7.045  12.799  1.00  0.00     0.210 HD
ENDBRANCH  46  49
ENDBRANCH  44  46
ENDBRANCH  11  40
BRANCH  12  51
HETATM   51  O6  UNL     1      -7.725   5.667  12.849  1.00  0.00    -0.395 OA
HETATM   52  H37 UNL     1      -7.904   4.946  12.225  1.00  0.00     0.210 HD
ENDBRANCH  12  51
TORSDOF 11
ENDMDL
