MODEL 1
REMARK minimizedAffinity -6.03529501
REMARK CNNscore 0.375502855
REMARK CNNaffinity 5.70940924
REMARK  8 active torsions:
REMARK  status: ('A' for Active; 'I' for Inactive)
REMARK    1  A    between atoms: C12_14  and  C13_15 
REMARK    2  A    between atoms: C13_15  and  C15_17 
REMARK    3  A    between atoms: C15_17  and  C16_18 
REMARK    4  A    between atoms: C16_18  and  C17_19 
REMARK    5  A    between atoms: C26_28  and  C27_29 
REMARK    6  A    between atoms: C27_29  and  C28_30 
REMARK    7  A    between atoms: C28_30  and  C29_31 
REMARK    8  A    between atoms: C29_31  and  O4_33 
ROOT
HETATM    1  C1  UNL     1      -7.901  -9.518  12.802  1.00  0.00     0.025 C 
HETATM    2  C2  UNL     1      -6.945  -9.966  11.979  1.00  0.00     0.015 C 
HETATM    3  C3  UNL     1      -6.324 -11.308  12.121  1.00  0.00     0.289 C 
HETATM    4  O1  UNL     1      -6.730 -12.224  12.815  1.00  0.00    -0.260 OA
HETATM    5  O2  UNL     1      -5.224 -11.343  11.307  1.00  0.00    -0.311 OA
HETATM    6  C4  UNL     1      -4.945 -10.007  10.881  1.00  0.00     0.142 C 
HETATM    7  C5  UNL     1      -4.189  -9.941   9.566  1.00  0.00     0.039 C 
HETATM    8  C6  UNL     1      -4.943 -10.559   8.371  1.00  0.00     0.006 C 
HETATM    9  C7  UNL     1      -6.372  -9.966   8.225  1.00  0.00    -0.027 A 
HETATM   10  C8  UNL     1      -6.886  -9.585   6.808  1.00  0.00     0.011 C 
HETATM   11  C9  UNL     1      -6.020  -9.888   5.579  1.00  0.00     0.011 C 
HETATM   12  C10 UNL     1      -4.971 -10.964   5.839  1.00  0.00    -0.032 C 
HETATM   13  C11 UNL     1      -5.691 -12.314   6.073  1.00  0.00     0.016 C 
HETATM   14  C12 UNL     1      -3.893 -11.106   4.720  1.00  0.00    -0.002 C 
HETATM   15  C21 UNL     1      -2.639 -11.605   5.471  1.00  0.00     0.006 C 
HETATM   16  C22 UNL     1      -2.925 -11.447   6.978  1.00  0.00     0.011 C 
HETATM   17  C23 UNL     1      -4.115 -10.472   7.056  1.00  0.00    -0.032 C 
HETATM   18  C24 UNL     1      -3.541  -9.027   6.892  1.00  0.00     0.016 C 
HETATM   19  C25 UNL     1      -7.450 -10.693   9.024  1.00  0.00     0.022 A 
HETATM   20  C26 UNL     1      -7.021  -9.328   9.498  1.00  0.00    -0.021 A 
HETATM   21  C31 UNL     1      -6.272  -9.266  10.844  1.00  0.00     0.063 C 
ENDROOT
BRANCH  14  22
HETATM   22  C13 UNL     1      -4.235 -11.752   3.344  1.00  0.00    -0.014 C 
HETATM   23  C14 UNL     1      -4.045 -13.279   3.445  1.00  0.00     0.010 C 
BRANCH  22  24
HETATM   24  C15 UNL     1      -5.541 -11.407   2.581  1.00  0.00     0.008 C 
BRANCH  24  25
HETATM   25  C16 UNL     1      -5.529 -10.626   1.259  1.00  0.00     0.028 C 
BRANCH  25  26
HETATM   26  C17 UNL     1      -4.809 -11.320   0.142  1.00  0.00    -0.025 C 
HETATM   27  C18 UNL     1      -4.884 -11.071  -1.180  1.00  0.00    -0.091 C 
HETATM   28  C19 UNL     1      -5.674  -9.959  -1.810  1.00  0.00     0.042 C 
HETATM   29  C20 UNL     1      -4.140 -11.943  -2.158  1.00  0.00     0.042 C 
ENDBRANCH  25  26
ENDBRANCH  24  25
ENDBRANCH  22  24
ENDBRANCH  14  22
BRANCH  20  30
HETATM   30  C27 UNL     1      -8.032  -8.191   9.315  1.00  0.00     0.021 C 
BRANCH  30  31
HETATM   31  C28 UNL     1      -9.466  -8.635   9.601  1.00  0.00     0.112 C 
BRANCH  31  32
HETATM   32  C29 UNL     1     -10.351  -8.373   8.411  1.00  0.00     0.258 C 
HETATM   33  O3  UNL     1      -9.980  -8.459   7.246  1.00  0.00    -0.265 OA
BRANCH  32  34
HETATM   34  O4  UNL     1     -11.605  -8.028   8.814  1.00  0.00    -0.326 OA
HETATM   35  C30 UNL     1     -12.480  -7.670   7.740  1.00  0.00     0.213 C 
ENDBRANCH  32  34
ENDBRANCH  31  32
ENDBRANCH  30  31
ENDBRANCH  20  30
TORSDOF 8
ENDMDL
