MODEL 1
REMARK minimizedAffinity -9.17027283
REMARK  8 active torsions:
REMARK  status: ('A' for Active; 'I' for Inactive)
REMARK    1  A    between atoms: C2_2  and  C3_3 
REMARK    2  A    between atoms: C2_2  and  C9_12 
REMARK    3  A    between atoms: C3_3  and  C4_4 
REMARK    4  A    between atoms: C4_4  and  C5_5 
REMARK    5  A    between atoms: C6_6  and  C7_7 
REMARK    6  A    between atoms: C6_6  and  C8_9 
REMARK    7  A    between atoms: C7_7  and  O1_8 
REMARK    8  A    between atoms: C8_9  and  O3_11 
ROOT
HETATM    1  C9  UNL     1      -2.996   7.831  14.016  1.00  0.00    -0.002 C 
HETATM    2  C10 UNL     1      -2.271   8.422  15.265  1.00  0.00     0.006 C 
HETATM    3  C11 UNL     1      -0.804   7.938  15.212  1.00  0.00     0.011 C 
HETATM    4  C12 UNL     1      -0.616   7.437  13.771  1.00  0.00    -0.032 C 
HETATM    5  C13 UNL     1      -0.381   8.711  12.900  1.00  0.00     0.016 C 
HETATM    6  C14 UNL     1       0.544   6.424  13.521  1.00  0.00     0.004 C 
HETATM    7  C15 UNL     1       1.935   6.889  13.959  1.00  0.00     0.007 C 
HETATM    8  C16 UNL     1       2.843   7.562  12.935  1.00  0.00     0.007 C 
HETATM    9  C17 UNL     1       2.429   7.560  11.453  1.00  0.00     0.010 C 
HETATM   10  C18 UNL     1       3.653   7.705  10.486  1.00  0.00     0.018 C 
HETATM   11  C19 UNL     1       4.429   9.005  10.789  1.00  0.00     0.023 C 
HETATM   12  C20 UNL     1       4.645   6.528  10.551  1.00  0.00     0.023 C 
HETATM   13  C21 UNL     1       3.115   7.778   9.049  1.00  0.00     0.135 C 
HETATM   14  O4  UNL     1       3.462   8.648   8.249  1.00  0.00    -0.297 OA
HETATM   15  C22 UNL     1       2.181   6.677   8.618  1.00  0.00     0.080 C 
HETATM   16  C23 UNL     1       1.018   6.576   9.586  1.00  0.00     0.018 C 
HETATM   17  C24 UNL     1       1.482   6.430  11.031  1.00  0.00    -0.026 A 
HETATM   18  C25 UNL     1       1.645   5.038  11.589  1.00  0.00     0.021 A 
HETATM   19  C26 UNL     1       0.484   5.891  12.077  1.00  0.00    -0.027 A 
HETATM   20  C27 UNL     1      -0.907   5.374  11.675  1.00  0.00     0.011 C 
HETATM   21  C28 UNL     1      -2.071   6.313  12.048  1.00  0.00     0.011 C 
HETATM   22  C29 UNL     1      -2.012   6.722  13.530  1.00  0.00    -0.032 C 
HETATM   23  C30 UNL     1      -2.232   5.438  14.385  1.00  0.00     0.016 C 
ENDROOT
BRANCH   1  24
HETATM   24  C2  UNL     1      -4.526   7.596  14.228  1.00  0.00    -0.014 C 
HETATM   25  C1  UNL     1      -5.211   8.473  15.283  1.00  0.00     0.010 C 
BRANCH  24  26
HETATM   26  C3  UNL     1      -4.830   6.094  14.447  1.00  0.00     0.008 C 
BRANCH  26  27
HETATM   27  C4  UNL     1      -6.012   5.528  13.643  1.00  0.00     0.028 C 
BRANCH  27  28
HETATM   28  C5  UNL     1      -5.647   4.480  12.631  1.00  0.00    -0.011 C 
HETATM   29  C6  UNL     1      -6.237   3.274  12.487  1.00  0.00     0.035 C 
BRANCH  29  30
HETATM   30  C7  UNL     1      -7.430   2.807  13.266  1.00  0.00     0.209 C 
BRANCH  30  31
HETATM   31  O1  UNL     1      -8.166   1.882  12.474  1.00  0.00    -0.396 OA
HETATM   32  H12 UNL     1      -9.016   1.742  12.925  1.00  0.00     0.209 HD
ENDBRANCH  30  31
ENDBRANCH  29  30
BRANCH  29  33
HETATM   33  C8  UNL     1      -5.764   2.319  11.453  1.00  0.00     0.173 C 
HETATM   34  O2  UNL     1      -5.743   1.105  11.563  1.00  0.00    -0.646 OA
BRANCH  33  35
HETATM   35  O3  UNL     1      -5.342   2.907  10.320  1.00  0.00    -0.773 OA
HETATM   36  H13 UNL     1      -5.050   2.154   9.766  1.00  0.00     0.167 HD
ENDBRANCH  33  35
ENDBRANCH  29  33
ENDBRANCH  27  28
ENDBRANCH  26  27
ENDBRANCH  24  26
ENDBRANCH   1  24
TORSDOF 8
ENDMDL
