MODEL 1
REMARK minimizedAffinity -8.02316093
REMARK CNNscore 0.768150508
REMARK CNNaffinity 6.26436234
REMARK  12 active torsions:
REMARK  status: ('A' for Active; 'I' for Inactive)
REMARK    1  A    between atoms: C2_2  and  C31_37 
REMARK    2  A    between atoms: C3_3  and  C4_4 
REMARK    3  A    between atoms: C4_4  and  O1_5 
REMARK    4  A    between atoms: C4_4  and  C5_6 
REMARK    5  A    between atoms: C5_6  and  C6_7 
REMARK    6  A    between atoms: C6_7  and  C8_9 
REMARK    7  A    between atoms: C10_11  and  O2_12 
REMARK    8  A    between atoms: C11_13  and  C12_14 
REMARK    9  A    between atoms: C12_14  and  C13_15 
REMARK   10  A    between atoms: C13_15  and  O3_16 
REMARK   11  A    between atoms: C30_35  and  O6_36 
REMARK   12  A    between atoms: C31_37  and  O8_39 
ROOT
HETATM    1  C8  UNL     1      -2.848   7.287  14.171  1.00  0.00     0.001 C 
HETATM    2  C9  UNL     1      -2.225   7.765  12.838  1.00  0.00     0.038 C 
HETATM    3  C10 UNL     1      -1.729   9.210  13.078  1.00  0.00     0.132 C 
HETATM    4  C11 UNL     1      -1.669   9.374  14.630  1.00  0.00     0.022 C 
HETATM    5  C14 UNL     1      -1.795  10.767  15.256  1.00  0.00    -0.029 C 
HETATM    6  C15 UNL     1      -2.292  10.921  16.511  1.00  0.00     0.002 C 
HETATM    7  C16 UNL     1      -2.657   9.662  17.278  1.00  0.00     0.157 C 
HETATM    8  O4  UNL     1      -2.622   9.646  18.507  1.00  0.00    -0.293 OA
HETATM    9  C17 UNL     1      -3.068   8.400  16.519  1.00  0.00     0.094 C 
HETATM   10  C18 UNL     1      -3.009   8.599  14.999  1.00  0.00    -0.019 C 
HETATM   11  C19 UNL     1      -4.315   9.351  14.589  1.00  0.00     0.017 C 
HETATM   12  C20 UNL     1      -2.426  12.303  17.203  1.00  0.00    -0.008 C 
HETATM   13  C21 UNL     1      -3.687  12.339  18.112  1.00  0.00     0.021 C 
HETATM   14  C22 UNL     1      -1.159  12.431  18.091  1.00  0.00     0.022 C 
HETATM   15  C23 UNL     1      -0.899  13.820  18.617  1.00  0.00     0.080 C 
HETATM   16  C24 UNL     1      -0.699  14.714  17.429  1.00  0.00     0.135 C 
HETATM   17  O5  UNL     1       0.375  15.295  17.266  1.00  0.00    -0.297 OA
HETATM   18  C25 UNL     1      -1.898  14.895  16.498  1.00  0.00     0.018 C 
HETATM   19  C26 UNL     1      -1.433  15.694  15.260  1.00  0.00     0.023 C 
HETATM   20  C27 UNL     1      -2.886  15.829  17.245  1.00  0.00     0.023 C 
HETATM   21  C28 UNL     1      -2.609  13.514  16.156  1.00  0.00     0.016 C 
HETATM   22  C29 UNL     1      -2.522  13.044  14.680  1.00  0.00     0.043 C 
HETATM   23  C30 UNL     1      -1.474  11.977  14.420  1.00  0.00     0.149 C 
ENDROOT
BRANCH   1  24
HETATM   24  C6  UNL     1      -4.054   6.298  14.068  1.00  0.00    -0.011 C 
HETATM   25  C7  UNL     1      -4.756   6.245  15.437  1.00  0.00     0.010 C 
BRANCH  24  26
HETATM   26  C5  UNL     1      -3.688   4.862  13.602  1.00  0.00     0.040 C 
BRANCH  26  27
HETATM   27  C4  UNL     1      -3.603   4.611  12.083  1.00  0.00     0.142 C 
BRANCH  27  28
HETATM   28  C3  UNL     1      -2.455   3.754  11.649  1.00  0.00     0.018 C 
HETATM   29  C2  UNL     1      -2.461   2.413  11.498  1.00  0.00     0.010 C 
HETATM   30  C1  UNL     1      -3.644   1.517  11.701  1.00  0.00     0.055 C 
BRANCH  29  31
HETATM   31  C31 UNL     1      -1.184   1.785  11.071  1.00  0.00     0.171 C 
HETATM   32  O7  UNL     1      -0.065   2.256  11.175  1.00  0.00    -0.646 OA
BRANCH  31  33
HETATM   33  O8  UNL     1      -1.375   0.578  10.514  1.00  0.00    -0.773 OA
HETATM   34  H46 UNL     1      -0.466   0.290  10.285  1.00  0.00     0.167 HD
ENDBRANCH  31  33
ENDBRANCH  29  31
ENDBRANCH  27  28
BRANCH  27  35
HETATM   35  O1  UNL     1      -4.794   4.000  11.605  1.00  0.00    -0.392 OA
HETATM   36  H6  UNL     1      -5.522   4.630  11.739  1.00  0.00     0.210 HD
ENDBRANCH  27  35
ENDBRANCH  26  27
ENDBRANCH  24  26
ENDBRANCH   1  24
BRANCH   3  37
HETATM   37  O2  UNL     1      -0.489   9.433  12.436  1.00  0.00    -0.394 OA
HETATM   38  H17 UNL     1      -0.586   9.189  11.498  1.00  0.00     0.210 HD
ENDBRANCH   3  37
BRANCH   4  39
HETATM   39  C12 UNL     1      -0.363   8.667  15.171  1.00  0.00     0.043 C 
BRANCH  39  40
HETATM   40  C13 UNL     1      -0.426   7.162  15.419  1.00  0.00     0.165 C 
BRANCH  40  41
HETATM   41  O3  UNL     1       0.851   6.608  15.108  1.00  0.00    -0.401 OA
HETATM   42  H22 UNL     1       0.788   5.653  15.272  1.00  0.00     0.209 HD
ENDBRANCH  40  41
ENDBRANCH  39  40
ENDBRANCH   4  39
BRANCH  23  43
HETATM   43  O6  UNL     1      -0.191  12.502  14.698  1.00  0.00    -0.391 OA
HETATM   44  H45 UNL     1       0.163  12.104  15.505  1.00  0.00     0.210 HD
ENDBRANCH  23  43
TORSDOF 12
ENDMDL
