MODEL 1
REMARK minimizedAffinity -10.3359871
REMARK  6 active torsions:
REMARK  status: ('A' for Active; 'I' for Inactive)
REMARK    1  A    between atoms: N1_2  and  C2_3 
REMARK    2  A    between atoms: C4_5  and  N3_29 
REMARK    3  A    between atoms: C5_7  and  N2_12 
REMARK    4  A    between atoms: C7_9  and  O2_10 
REMARK    5  A    between atoms: C27_32  and  O3_33 
REMARK    6  A    between atoms: C28_36  and  O4_37 
ROOT
HETATM    1  C2  UNL     1       9.293  -9.336  25.137  1.00  0.00     0.257 C 
HETATM    2  C3  UNL     1       8.293  -9.066  26.267  1.00  0.00     0.092 C 
HETATM    3  C4  UNL     1       8.870  -9.416  27.646  1.00  0.00     0.234 C 
HETATM    4  O1  UNL     1      10.125 -10.091  27.604  1.00  0.00    -0.333 OA
HETATM    5  C5  UNL     1      11.180  -9.500  26.804  1.00  0.00     0.168 C 
HETATM    6  C6  UNL     1      11.914 -10.784  26.349  1.00  0.00     0.074 C 
HETATM    7  C7  UNL     1      10.654  -8.723  25.548  1.00  0.00     0.209 C 
ENDROOT
BRANCH   1   8
HETATM    8  N1  UNL     1       8.806  -8.784  23.853  1.00  0.00     0.086 N 
HETATM    9  C1  UNL     1       9.623  -9.182  22.715  1.00  0.00     0.307 C 
HETATM   10  H4  UNL     1       8.769  -7.767  23.898  1.00  0.00     0.316 HD
ENDBRANCH   1   8
BRANCH   7  11
HETATM   11  O2  UNL     1      10.415  -7.332  25.839  1.00  0.00    -0.384 OA
HETATM   12  C8  UNL     1      11.588  -6.616  26.190  1.00  0.00     0.202 C 
ENDBRANCH   7  11
BRANCH   3  13
HETATM   13  N3  UNL     1       8.889  -8.339  28.629  1.00  0.00    -0.316 N 
HETATM   14  C24 UNL     1      10.024  -7.909  29.303  1.00  0.00     0.048 A 
HETATM   15  C19 UNL     1       9.669  -6.760  30.029  1.00  0.00     0.004 A 
HETATM   16  C23 UNL     1      11.330  -8.431  29.321  1.00  0.00     0.030 A 
HETATM   17  C18 UNL     1       8.282  -6.506  29.788  1.00  0.00     0.021 A 
HETATM   18  C20 UNL     1      10.675  -6.129  30.795  1.00  0.00     0.014 A 
HETATM   19  C17 UNL     1       7.282  -5.590  30.144  1.00  0.00     0.040 A 
HETATM   20  C25 UNL     1       7.853  -7.515  28.941  1.00  0.00     0.077 A 
HETATM   21  C16 UNL     1       5.930  -5.638  29.724  1.00  0.00     0.019 A 
HETATM   22  C27 UNL     1       7.310  -4.427  30.999  1.00  0.00     0.150 A 
HETATM   23  C15 UNL     1       5.446  -6.661  28.894  1.00  0.00     0.017 A 
HETATM   24  C28 UNL     1       5.211  -4.492  30.389  1.00  0.00     0.256 A 
HETATM   25  C14 UNL     1       4.193  -7.067  28.360  1.00  0.00     0.004 A 
HETATM   26  C26 UNL     1       6.367  -7.598  28.475  1.00  0.00     0.077 A 
HETATM   27  C9  UNL     1       4.391  -8.275  27.663  1.00  0.00     0.049 A 
HETATM   28  C13 UNL     1       2.890  -6.529  28.453  1.00  0.00     0.014 A 
HETATM   29  N2  UNL     1       5.760  -8.541  27.684  1.00  0.00    -0.308 N 
HETATM   30  C10 UNL     1       3.290  -8.967  27.121  1.00  0.00     0.030 A 
HETATM   31  C11 UNL     1       2.010  -8.413  27.236  1.00  0.00     0.002 A 
HETATM   32  C12 UNL     1       1.811  -7.204  27.884  1.00  0.00     0.001 A 
HETATM   33  N4  UNL     1       6.220  -3.756  31.191  1.00  0.00    -0.340 N 
ATOM     34  H4  UNL     1       6.086  -2.919  31.759  1.00  0.00     0.164 HD
HETATM   35  C21 UNL     1      11.975  -6.644  30.819  1.00  0.00     0.001 A 
HETATM   36  C22 UNL     1      12.296  -7.781  30.091  1.00  0.00     0.002 A 
BRANCH  24  37
HETATM   37  O4  UNL     1       4.600  -3.672  29.418  1.00  0.00    -0.372 OA
HETATM   38  H26 UNL     1       4.831  -2.778  29.722  1.00  0.00     0.212 HD
ENDBRANCH  24  37
BRANCH  22  39
HETATM   39  O3  UNL     1       8.437  -4.038  31.585  1.00  0.00    -0.346 OA
HETATM   40  H24 UNL     1       8.237  -3.244  32.108  1.00  0.00     0.219 HD
ENDBRANCH  22  39
ENDBRANCH   3  13
TORSDOF 6
ENDMDL
