MODEL 1
REMARK minimizedAffinity -7.58521366
REMARK  4 active torsions:
REMARK  status: ('A' for Active; 'I' for Inactive)
REMARK    1  A    between atoms: N1_1  and  C1_2 
REMARK    2  A    between atoms: C2_5  and  O1_6 
REMARK    3  A    between atoms: O1_6  and  C3_7 
REMARK    4  A    between atoms: C3_7  and  C4_8 
ROOT
HETATM    1  C1  UNL     1       4.104  62.508 -33.469  1.00  0.00     0.158 A 
HETATM    2  N2  UNL     1       5.127  61.681 -33.744  1.00  0.00    -0.311 N 
ATOM      3  H2  UNL     1       5.265  60.827 -33.204  1.00  0.00     0.170 HD
HETATM    4  C2  UNL     1       5.974  62.005 -34.757  1.00  0.00     0.176 A 
HETATM    5  C8  UNL     1       5.751  63.170 -35.490  1.00  0.00     0.129 A 
HETATM    6  N3  UNL     1       6.391  63.778 -36.550  1.00  0.00    -0.346 N 
ATOM      7  H3  UNL     1       7.225  63.454 -37.041  1.00  0.00     0.167 HD
HETATM    8  C9  UNL     1       5.692  64.867 -36.791  1.00  0.00     0.182 A 
HETATM    9  N4  UNL     1       4.629  64.990 -35.938  1.00  0.00    -0.337 N 
HETATM   10  C10 UNL     1       4.651  63.913 -35.100  1.00  0.00     0.140 A 
HETATM   11  N5  UNL     1       3.788  63.642 -34.114  1.00  0.00    -0.317 N 
ATOM     12  H5  UNL     1       2.986  64.228 -33.881  1.00  0.00     0.170 HD
HETATM   13  H8  UNL     1       3.948  65.733 -35.916  1.00  0.00     0.168 HD
ENDROOT
BRANCH   4  14
HETATM   14  O1  UNL     1       7.037  61.181 -35.066  1.00  0.00    -0.329 OA
BRANCH  14  15
HETATM   15  C3  UNL     1       7.898  60.943 -33.954  1.00  0.00     0.223 C 
BRANCH  15  16
HETATM   16  C4  UNL     1       9.127  61.786 -34.151  1.00  0.00     0.008 A 
HETATM   17  C5  UNL     1       9.582  62.425 -35.292  1.00  0.00     0.036 A 
HETATM   18  C6  UNL     1      10.783  63.135 -35.055  1.00  0.00     0.018 A 
HETATM   19 BR1  UNL     1      11.657  64.103 -36.417  1.00  0.00    -0.051 Br
HETATM   20  C7  UNL     1      11.223  63.041 -33.759  1.00  0.00     0.069 A 
HETATM   21  S1  UNL     1      10.167  62.082 -32.814  1.00  0.00    -0.103 SA
ENDBRANCH  15  16
ENDBRANCH  14  15
ENDBRANCH   4  14
BRANCH   1  22
HETATM   22  N1  UNL     1       3.269  62.128 -32.438  1.00  0.00    -0.274 NA
HETATM   23  H1  UNL     1       2.353  62.536 -32.560  1.00  0.00     0.127 HD
HETATM   24  H2  UNL     1       3.318  61.129 -32.298  1.00  0.00     0.127 HD
ENDBRANCH   1  22
TORSDOF 4
ENDMDL
