MODEL 1
REMARK minimizedAffinity -6.8907752
REMARK CNNscore 0.593845546
REMARK CNNaffinity 7.13275385
REMARK  13 active torsions:
REMARK  status: ('A' for Active; 'I' for Inactive)
REMARK    1  A    between atoms: O1_2  and  C2_3 
REMARK    2  A    between atoms: C3_5  and  C4_6 
REMARK    3  A    between atoms: C4_6  and  O3_7 
REMARK    4  A    between atoms: C4_6  and  C5_8 
REMARK    5  A    between atoms: C5_8  and  O4_10 
REMARK    6  A    between atoms: C5_8  and  C7_11 
REMARK    7  A    between atoms: C7_11  and  O5_12 
REMARK    8  A    between atoms: C9_14  and  C10_15 
REMARK    9  A    between atoms: C23_28  and  O6_29 
REMARK   10  A    between atoms: O6_29  and  C24_30 
REMARK   11  A    between atoms: C24_30  and  C25_32 
REMARK   12  A    between atoms: C25_32  and  C26_33 
REMARK   13  A    between atoms: C34_41  and  O8_42 
ROOT
HETATM    1  C10 UNL     1      -2.450  53.251  -9.516  1.00  0.00     0.004 C 
HETATM    2  C11 UNL     1      -2.590  54.403 -10.543  1.00  0.00     0.007 C 
HETATM    3  C12 UNL     1      -1.311  55.236 -10.384  1.00  0.00     0.011 C 
HETATM    4  C13 UNL     1      -0.251  54.248  -9.909  1.00  0.00    -0.021 A 
HETATM    5  C14 UNL     1      -0.124  52.987 -10.737  1.00  0.00     0.022 A 
HETATM    6  C15 UNL     1      -0.950  52.981  -9.459  1.00  0.00    -0.027 A 
HETATM    7  C16 UNL     1      -0.413  52.167  -8.303  1.00  0.00     0.011 C 
HETATM    8  C17 UNL     1       0.735  52.808  -7.513  1.00  0.00     0.007 C 
HETATM    9  C18 UNL     1       1.721  53.595  -8.400  1.00  0.00     0.005 C 
HETATM   10  C19 UNL     1       3.128  53.912  -7.726  1.00  0.00    -0.035 C 
HETATM   11  C20 UNL     1       2.977  54.646  -6.375  1.00  0.00     0.016 C 
HETATM   12  C21 UNL     1       3.850  52.548  -7.434  1.00  0.00     0.012 C 
HETATM   13  C22 UNL     1       5.328  52.487  -7.838  1.00  0.00     0.034 C 
HETATM   14  C23 UNL     1       6.097  53.779  -7.554  1.00  0.00     0.140 C 
HETATM   15  C29 UNL     1       5.489  55.003  -8.324  1.00  0.00    -0.016 C 
HETATM   16  C30 UNL     1       5.661  56.316  -7.533  1.00  0.00     0.018 C 
HETATM   17  C31 UNL     1       6.328  55.170  -9.626  1.00  0.00     0.018 C 
HETATM   18  C32 UNL     1       3.992  54.723  -8.756  1.00  0.00     0.007 C 
HETATM   19  C33 UNL     1       3.237  55.965  -9.293  1.00  0.00     0.038 C 
HETATM   20  C34 UNL     1       1.934  55.578 -10.008  1.00  0.00     0.128 C 
HETATM   21  C35 UNL     1       0.959  54.799  -9.080  1.00  0.00    -0.005 C 
HETATM   22  C36 UNL     1       0.387  55.791  -8.026  1.00  0.00     0.019 C 
ENDROOT
BRANCH   1  23
HETATM   23  C9  UNL     1      -3.422  52.109  -9.836  1.00  0.00     0.048 C 
HETATM   24  C2  UNL     1      -3.750  51.743 -11.281  1.00  0.00     0.264 C 
HETATM   25  O2  UNL     1      -4.497  50.520 -11.173  1.00  0.00    -0.353 OA
HETATM   26  C3  UNL     1      -4.166  49.875  -9.921  1.00  0.00     0.157 C 
HETATM   27  C8  UNL     1      -3.079  50.742  -9.280  1.00  0.00     0.044 C 
BRANCH  24  28
HETATM   28  O1  UNL     1      -2.587  51.464 -12.049  1.00  0.00    -0.366 OA
HETATM   29  C1  UNL     1      -2.627  52.099 -13.320  1.00  0.00     0.204 C 
ENDBRANCH  24  28
BRANCH  26  30
HETATM   30  C4  UNL     1      -3.698  48.427 -10.181  1.00  0.00     0.183 C 
BRANCH  30  31
HETATM   31  O3  UNL     1      -2.296  48.309  -9.900  1.00  0.00    -0.390 OA
HETATM   32  H7  UNL     1      -1.932  49.220  -9.928  1.00  0.00     0.210 HD
ENDBRANCH  30  31
BRANCH  30  33
HETATM   33  C5  UNL     1      -4.026  47.855 -11.593  1.00  0.00     0.103 C 
HETATM   34  C6  UNL     1      -4.151  46.325 -11.527  1.00  0.00     0.051 C 
BRANCH  33  35
HETATM   35  O4  UNL     1      -5.304  48.380 -12.029  1.00  0.00    -0.385 OA
HETATM   36  H11 UNL     1      -5.994  47.952 -11.490  1.00  0.00     0.210 HD
ENDBRANCH  33  35
BRANCH  33  37
HETATM   37  C7  UNL     1      -3.002  48.223 -12.687  1.00  0.00     0.204 C 
BRANCH  37  38
HETATM   38  O5  UNL     1      -3.630  48.956 -13.741  1.00  0.00    -0.398 OA
HETATM   39  H14 UNL     1      -4.506  48.534 -13.842  1.00  0.00     0.209 HD
ENDBRANCH  37  38
ENDBRANCH  33  37
ENDBRANCH  30  33
ENDBRANCH  26  30
ENDBRANCH   1  23
BRANCH  20  40
HETATM   40  O8  UNL     1       2.283  54.792 -11.153  1.00  0.00    -0.395 OA
HETATM   41  H57 UNL     1       2.788  55.362 -11.756  1.00  0.00     0.210 HD
ENDBRANCH  20  40
BRANCH  14  42
HETATM   42  O6  UNL     1       6.084  53.967  -6.124  1.00  0.00    -0.315 OA
BRANCH  42  43
HETATM   43  C24 UNL     1       7.254  53.769  -5.450  1.00  0.00     0.259 C 
HETATM   44  O7  UNL     1       7.801  52.689  -5.292  1.00  0.00    -0.265 OA
BRANCH  43  45
HETATM   45  C25 UNL     1       7.762  55.111  -4.962  1.00  0.00     0.115 C 
BRANCH  45  46
HETATM   46  C26 UNL     1       9.190  55.135  -4.393  1.00  0.00    -0.013 C 
HETATM   47  C27 UNL     1       9.763  53.732  -4.180  1.00  0.00     0.010 C 
HETATM   48  C28 UNL     1      10.141  56.004  -5.215  1.00  0.00     0.010 C 
ENDBRANCH  45  46
ENDBRANCH  43  45
ENDBRANCH  42  43
ENDBRANCH  14  42
TORSDOF 13
ENDMDL
