MODEL 1
REMARK minimizedAffinity -7.62801743
REMARK CNNscore 0.531896949
REMARK CNNaffinity 6.59112978
REMARK  8 active torsions:
REMARK  status: ('A' for Active; 'I' for Inactive)
REMARK    1  A    between atoms: C4_4  and  C5_5 
REMARK    2  A    between atoms: C5_5  and  C6_6 
REMARK    3  A    between atoms: C6_6  and  C7_7 
REMARK    4  A    between atoms: C7_7  and  C9_9 
REMARK    5  A    between atoms: C25_26  and  C27_28 
REMARK    6  A    between atoms: C27_28  and  O3_30 
REMARK    7  A    between atoms: C28_31  and  O4_32 
REMARK    8  A    between atoms: C30_34  and  O5_35 
ROOT
HETATM    1  C9  UNL     1     -10.442   7.768  15.133  1.00  0.00    -0.002 C 
HETATM    2  C10 UNL     1      -9.954   9.185  14.724  1.00  0.00     0.007 C 
HETATM    3  C11 UNL     1     -11.177   9.944  14.166  1.00  0.00     0.015 C 
HETATM    4  C12 UNL     1     -12.399   9.077  14.541  1.00  0.00    -0.005 C 
HETATM    5  C13 UNL     1     -12.784   9.450  16.007  1.00  0.00     0.021 C 
HETATM    6  C14 UNL     1     -13.709   9.194  13.772  1.00  0.00    -0.000 C 
HETATM    7  C15 UNL     1     -14.555   8.136  13.645  1.00  0.00    -0.058 C 
HETATM    8  C16 UNL     1     -14.160   6.749  14.178  1.00  0.00     0.036 C 
HETATM    9  C17 UNL     1     -12.789   6.614  14.867  1.00  0.00     0.015 C 
HETATM   10  C18 UNL     1     -11.778   7.632  14.341  1.00  0.00    -0.028 C 
HETATM   11  C19 UNL     1     -11.509   7.304  12.840  1.00  0.00     0.016 C 
HETATM   12  C20 UNL     1     -15.940   8.221  12.912  1.00  0.00     0.011 C 
HETATM   13  C21 UNL     1     -15.665   7.622  11.510  1.00  0.00     0.023 C 
HETATM   14  C22 UNL     1     -16.401   9.714  12.859  1.00  0.00     0.029 C 
HETATM   15  C23 UNL     1     -15.301  10.639  12.336  1.00  0.00     0.090 C 
HETATM   16  C24 UNL     1     -14.069  10.530  13.199  1.00  0.00     0.157 C 
HETATM   17  O1  UNL     1     -13.366  11.521  13.388  1.00  0.00    -0.293 OA
HETATM   18  C25 UNL     1     -17.823   9.991  12.242  1.00  0.00     0.072 C 
HETATM   19  C26 UNL     1     -18.415  11.198  13.039  1.00  0.00     0.030 C 
HETATM   20  C28 UNL     1     -18.800   8.798  12.444  1.00  0.00     0.139 C 
HETATM   21  C29 UNL     1     -18.470   8.004  13.701  1.00  0.00     0.065 C 
HETATM   22  C30 UNL     1     -17.043   7.422  13.710  1.00  0.00     0.133 C 
ENDROOT
BRANCH   1  23
HETATM   23  C7  UNL     1      -9.297   6.710  15.126  1.00  0.00    -0.014 C 
HETATM   24  C8  UNL     1      -8.288   6.802  16.280  1.00  0.00     0.010 C 
BRANCH  23  25
HETATM   25  C6  UNL     1      -8.510   6.594  13.795  1.00  0.00     0.008 C 
BRANCH  25  26
HETATM   26  C5  UNL     1      -8.402   5.176  13.208  1.00  0.00     0.028 C 
BRANCH  26  27
HETATM   27  C4  UNL     1      -7.007   4.782  12.803  1.00  0.00    -0.025 C 
HETATM   28  C2  UNL     1      -6.534   3.550  12.526  1.00  0.00    -0.091 C 
HETATM   29  C1  UNL     1      -7.338   2.280  12.595  1.00  0.00     0.042 C 
HETATM   30  C3  UNL     1      -5.094   3.350  12.115  1.00  0.00     0.042 C 
ENDBRANCH  26  27
ENDBRANCH  25  26
ENDBRANCH  23  25
ENDBRANCH   1  23
BRANCH  22  31
HETATM   31  O5  UNL     1     -17.116   6.059  13.281  1.00  0.00    -0.394 OA
HETATM   32  H46 UNL     1     -17.471   6.065  12.372  1.00  0.00     0.210 HD
ENDBRANCH  22  31
BRANCH  18  33
HETATM   33  C27 UNL     1     -17.851  10.428  10.774  1.00  0.00     0.151 C 
HETATM   34  O2  UNL     1     -17.613   9.714   9.809  1.00  0.00    -0.649 OA
BRANCH  33  35
HETATM   35  O3  UNL     1     -18.145  11.723  10.583  1.00  0.00    -0.776 OA
HETATM   36  H40 UNL     1     -18.066  11.841   9.611  1.00  0.00     0.167 HD
ENDBRANCH  33  35
ENDBRANCH  18  33
BRANCH  20  37
HETATM   37  O4  UNL     1     -18.828   7.870  11.356  1.00  0.00    -0.394 OA
HETATM   38  H42 UNL     1     -19.675   7.395  11.428  1.00  0.00     0.210 HD
ENDBRANCH  20  37
TORSDOF 8
ENDMDL
