MODEL 1
REMARK minimizedAffinity -8.8270092
REMARK  8 active torsions:
REMARK  status: ('A' for Active; 'I' for Inactive)
REMARK    1  A    between atoms: C4_4  and  C5_5 
REMARK    2  A    between atoms: C5_5  and  O2_7 
REMARK    3  A    between atoms: O2_7  and  C6_8 
REMARK    4  A    between atoms: C15_17  and  C16_18 
REMARK    5  A    between atoms: C16_18  and  O4_20 
REMARK    6  A    between atoms: O4_20  and  C17_21 
REMARK    7  A    between atoms: C17_21  and  C18_22 
REMARK    8  A    between atoms: C18_22  and  N1_23 
ROOT
HETATM    1  C6  UNL     1       0.512   6.764  10.975  1.00  0.00     0.140 C 
HETATM    2  C7  UNL     1       0.149   5.280  11.058  1.00  0.00     0.034 C 
HETATM    3  C8  UNL     1      -1.290   5.093  11.516  1.00  0.00     0.012 C 
HETATM    4  C9  UNL     1      -1.605   5.740  12.893  1.00  0.00    -0.035 C 
HETATM    5  C10 UNL     1      -0.972   4.859  13.999  1.00  0.00     0.016 C 
HETATM    6  C11 UNL     1      -3.187   5.786  13.057  1.00  0.00     0.006 C 
HETATM    7  C12 UNL     1      -3.819   4.453  13.489  1.00  0.00     0.010 C 
HETATM    8  C13 UNL     1      -5.340   4.482  13.312  1.00  0.00     0.035 C 
HETATM    9  C14 UNL     1      -5.980   5.783  13.756  1.00  0.00    -0.070 C 
HETATM   10  C15 UNL     1      -7.229   6.147  13.391  1.00  0.00     0.085 C 
HETATM   11  C21 UNL     1      -5.072   6.645  14.649  1.00  0.00     0.022 C 
HETATM   12  C22 UNL     1      -5.717   7.949  15.156  1.00  0.00     0.015 C 
HETATM   13  C23 UNL     1      -3.725   6.957  13.933  1.00  0.00     0.068 C 
HETATM   14  C24 UNL     1      -2.642   7.393  14.907  1.00  0.00     0.132 C 
HETATM   15  O5  UNL     1      -2.798   7.412  16.129  1.00  0.00    -0.298 OA
HETATM   16  C25 UNL     1      -1.334   7.860  14.301  1.00  0.00     0.085 C 
HETATM   17  C26 UNL     1      -1.080   7.220  12.922  1.00  0.00     0.011 C 
HETATM   18  C27 UNL     1       0.368   7.484  12.352  1.00  0.00    -0.016 C 
HETATM   19  C28 UNL     1       1.527   7.087  13.295  1.00  0.00     0.018 C 
HETATM   20  C29 UNL     1       0.536   9.009  12.106  1.00  0.00     0.018 C 
ENDROOT
BRANCH  10  21
HETATM   21  C16 UNL     1      -8.245   5.437  12.570  1.00  0.00     0.283 C 
HETATM   22  O3  UNL     1      -8.095   4.266  12.248  1.00  0.00    -0.260 OA
BRANCH  21  23
HETATM   23  O4  UNL     1      -9.280   6.230  12.218  1.00  0.00    -0.316 OA
BRANCH  23  24
HETATM   24  C17 UNL     1     -10.032   6.810  13.301  1.00  0.00     0.209 C 
BRANCH  24  25
HETATM   25  C18 UNL     1     -11.362   7.377  12.776  1.00  0.00     0.298 C 
BRANCH  25  26
HETATM   26  N1  UNL     1     -11.492   8.840  12.922  1.00  0.00     0.082 N 
HETATM   27  C19 UNL     1     -10.928   9.266  14.207  1.00  0.00     0.309 C 
HETATM   28  C20 UNL     1     -12.885   9.278  12.826  1.00  0.00     0.309 C 
ENDBRANCH  25  26
ENDBRANCH  24  25
ENDBRANCH  23  24
ENDBRANCH  21  23
ENDBRANCH  10  21
BRANCH   1  29
HETATM   29  O2  UNL     1       1.870   6.887  10.511  1.00  0.00    -0.312 OA
BRANCH  29  30
HETATM   30  C5  UNL     1       2.356   5.863   9.771  1.00  0.00     0.283 C 
HETATM   31  O1  UNL     1       2.660   4.754  10.183  1.00  0.00    -0.260 OA
BRANCH  30  32
HETATM   32  C4  UNL     1       2.405   6.212   8.335  1.00  0.00     0.084 C 
HETATM   33  C2  UNL     1       1.768   7.214   7.696  1.00  0.00    -0.082 C 
HETATM   34  C1  UNL     1       0.900   8.255   8.346  1.00  0.00     0.043 C 
HETATM   35  C3  UNL     1       1.921   7.378   6.205  1.00  0.00     0.043 C 
ENDBRANCH  30  32
ENDBRANCH  29  30
ENDBRANCH   1  29
TORSDOF 8
ENDMDL
