MODEL 1
REMARK minimizedAffinity -8.51040268
REMARK CNNscore 0.752507508
REMARK CNNaffinity 6.39363527
REMARK  13 active torsions:
REMARK  status: ('A' for Active; 'I' for Inactive)
REMARK    1  A    between atoms: C19_21  and  O3_22 
REMARK    2  A    between atoms: C19_21  and  C20_23 
REMARK    3  A    between atoms: C20_23  and  C21_25 
REMARK    4  A    between atoms: C21_25  and  O5_26 
REMARK    5  A    between atoms: O5_26  and  C22_27 
REMARK    6  A    between atoms: C22_27  and  C23_29 
REMARK    7  A    between atoms: C23_29  and  C24_30 
REMARK    8  A    between atoms: C24_30  and  C25_31 
REMARK       I    between atoms: C25_31  and  N1_33 
REMARK    9  A    between atoms: N1_33  and  C26_34 
REMARK   10  A    between atoms: C26_34  and  C27_35 
REMARK   11  A    between atoms: C27_35  and  C28_36 
REMARK   12  A    between atoms: C31_39  and  O8_40 
REMARK   13  A    between atoms: C32_41  and  O9_42 
ROOT
HETATM    1  C20 UNL     1      -1.422  12.917  17.822  1.00  0.00     0.185 C 
HETATM    2  O4  UNL     1      -2.128  12.750  18.820  1.00  0.00    -0.292 OA
ENDROOT
BRANCH   1   3
HETATM    3  C19 UNL     1       0.121  12.636  17.836  1.00  0.00     0.128 C 
HETATM    4  C14 UNL     1       0.671  11.978  19.151  1.00  0.00     0.005 C 
HETATM    5  C13 UNL     1       2.034  11.281  18.910  1.00  0.00     0.091 C 
HETATM    6  C15 UNL     1      -0.299  10.905  19.703  1.00  0.00     0.019 C 
HETATM    7  C16 UNL     1       0.856  13.172  20.139  1.00  0.00     0.002 C 
HETATM    8  C12 UNL     1       2.622  10.792  20.214  1.00  0.00     0.133 C 
HETATM    9  C11 UNL     1       2.674  11.777  21.379  1.00  0.00     0.072 C 
HETATM   10  O2  UNL     1       3.022   9.634  20.327  1.00  0.00    -0.297 OA
HETATM   11  C2  UNL     1       4.103  11.846  22.051  1.00  0.00    -0.009 C 
HETATM   12  C10 UNL     1       2.186  13.176  20.941  1.00  0.00     0.003 C 
HETATM   13  C1  UNL     1       4.240  10.686  23.066  1.00  0.00     0.021 C 
HETATM   14  C3  UNL     1       5.248  11.771  21.003  1.00  0.00     0.022 C 
HETATM   15  C7  UNL     1       4.252  13.168  22.817  1.00  0.00    -0.067 C 
HETATM   16  C4  UNL     1       6.634  12.023  21.596  1.00  0.00     0.084 C 
HETATM   17  C5  UNL     1       6.677  13.305  22.388  1.00  0.00     0.149 C 
HETATM   18  O1  UNL     1       7.725  13.913  22.593  1.00  0.00    -0.293 OA
HETATM   19  C6  UNL     1       5.415  13.824  22.963  1.00  0.00     0.053 C 
HETATM   20  C8  UNL     1       2.970  13.755  23.335  1.00  0.00     0.035 C 
HETATM   21  C9  UNL     1       2.065  14.129  22.161  1.00  0.00     0.010 C 
HETATM   22  C17 UNL     1       0.762  14.455  19.278  1.00  0.00     0.009 C 
HETATM   23  C18 UNL     1       0.827  13.995  17.827  1.00  0.00     0.047 C 
BRANCH   3  24
HETATM   24  O3  UNL     1       0.558  11.866  16.725  1.00  0.00    -0.381 OA
HETATM   25  H25 UNL     1       0.378  12.358  15.903  1.00  0.00     0.211 HD
ENDBRANCH   3  24
ENDBRANCH   1   3
BRANCH   1  26
HETATM   26  C21 UNL     1      -2.008  13.615  16.592  1.00  0.00     0.260 C 
BRANCH  26  27
HETATM   27  O5  UNL     1      -3.186  13.028  16.055  1.00  0.00    -0.314 OA
BRANCH  27  28
HETATM   28  C22 UNL     1      -2.981  11.831  15.437  1.00  0.00     0.259 C 
HETATM   29  O6  UNL     1      -1.961  11.519  14.838  1.00  0.00    -0.265 OA
BRANCH  28  30
HETATM   30  C23 UNL     1      -4.203  10.954  15.554  1.00  0.00     0.120 C 
BRANCH  30  31
HETATM   31  C24 UNL     1      -3.813   9.571  16.063  1.00  0.00     0.112 C 
BRANCH  31  32
HETATM   32  C25 UNL     1      -4.833   8.530  15.644  1.00  0.00     0.218 C 
HETATM   33  O7  UNL     1      -6.025   8.779  15.511  1.00  0.00    -0.274 OA
HETATM   34  N1  UNL     1      -4.281   7.293  15.398  1.00  0.00    -0.361 N 
HETATM   35  H32 UNL     1      -3.355   7.103  15.760  1.00  0.00     0.162 HD
BRANCH  34  36
HETATM   36  C26 UNL     1      -5.122   6.143  15.115  1.00  0.00     0.127 C 
BRANCH  36  37
HETATM   37  C27 UNL     1      -5.736   6.176  13.710  1.00  0.00     0.058 C 
BRANCH  37  38
HETATM   38  C28 UNL     1      -5.857   4.799  13.095  1.00  0.00    -0.054 A 
HETATM   39  C29 UNL     1      -4.770   4.236  12.404  1.00  0.00     0.010 A 
HETATM   40  C30 UNL     1      -4.881   2.980  11.806  1.00  0.00     0.040 A 
HETATM   41  C31 UNL     1      -6.079   2.288  11.903  1.00  0.00     0.098 A 
HETATM   42  C32 UNL     1      -7.161   2.830  12.590  1.00  0.00     0.099 A 
HETATM   43  C33 UNL     1      -7.062   4.083  13.185  1.00  0.00     0.046 A 
BRANCH  41  44
HETATM   44  O8  UNL     1      -6.192   1.060  11.315  1.00  0.00    -0.358 OA
HETATM   45  H39 UNL     1      -7.098   0.768  11.532  1.00  0.00     0.217 HD
ENDBRANCH  41  44
BRANCH  42  46
HETATM   46  O9  UNL     1      -8.310   2.088  12.653  1.00  0.00    -0.358 OA
HETATM   47  H40 UNL     1      -8.954   2.573  13.197  1.00  0.00     0.217 HD
ENDBRANCH  42  46
ENDBRANCH  37  38
ENDBRANCH  36  37
ENDBRANCH  34  36
ENDBRANCH  31  32
ENDBRANCH  30  31
ENDBRANCH  28  30
ENDBRANCH  27  28
ENDBRANCH  26  27
ENDBRANCH   1  26
TORSDOF 13
ENDMDL
