MODEL 1
REMARK minimizedAffinity -8.20375156
REMARK CNNscore 0.443152159
REMARK CNNaffinity 6.71804285
REMARK  13 active torsions:
REMARK  status: ('A' for Active; 'I' for Inactive)
REMARK    1  A    between atoms: O1_2  and  C2_3 
REMARK    2  A    between atoms: C12_14  and  C13_15 
REMARK    3  A    between atoms: C13_15  and  C15_17 
REMARK    4  A    between atoms: C15_17  and  C16_18 
REMARK    5  A    between atoms: C17_19  and  C18_20 
REMARK    6  A    between atoms: C18_20  and  O3_23 
REMARK    7  A    between atoms: C28_31  and  O4_32 
REMARK    8  A    between atoms: O4_32  and  C29_33 
REMARK    9  A    between atoms: C30_35  and  C31_36 
REMARK   10  A    between atoms: C31_36  and  O6_37 
REMARK   11  A    between atoms: C32_38  and  O7_39 
REMARK   12  A    between atoms: C33_40  and  O8_41 
REMARK   13  A    between atoms: C34_42  and  O9_43 
ROOT
HETATM    1  C2  UNL     1       2.881  10.383  20.635  1.00  0.00     0.270 C 
HETATM    2  O2  UNL     1       2.648   9.960  19.271  1.00  0.00    -0.344 OA
HETATM    3  C3  UNL     1       2.469  11.141  18.449  1.00  0.00     0.095 C 
HETATM    4  C4  UNL     1       3.887  11.485  18.017  1.00  0.00     0.008 C 
HETATM    5  C5  UNL     1       4.739  12.139  18.815  1.00  0.00    -0.021 C 
HETATM    6  C6  UNL     1       4.373  12.487  20.234  1.00  0.00     0.030 C 
HETATM    7  C7  UNL     1       2.921  11.954  20.643  1.00  0.00     0.024 C 
HETATM    8  C8  UNL     1       2.516  12.473  22.059  1.00  0.00     0.016 C 
HETATM    9  C9  UNL     1       2.865  13.931  22.407  1.00  0.00     0.011 C 
HETATM   10  C10 UNL     1       4.340  14.229  22.114  1.00  0.00    -0.032 C 
HETATM   11  C11 UNL     1       5.202  13.315  23.038  1.00  0.00     0.016 C 
HETATM   12  C12 UNL     1       4.794  15.709  22.261  1.00  0.00    -0.002 C 
HETATM   13  C21 UNL     1       6.072  15.776  21.378  1.00  0.00     0.006 C 
HETATM   14  C22 UNL     1       6.039  14.528  20.454  1.00  0.00     0.011 C 
HETATM   15  C23 UNL     1       4.594  13.995  20.574  1.00  0.00    -0.029 C 
HETATM   16  C24 UNL     1       3.736  14.899  19.625  1.00  0.00     0.016 C 
HETATM   17  C25 UNL     1       1.908  12.162  19.474  1.00  0.00     0.039 C 
HETATM   18  C26 UNL     1       0.433  11.877  19.863  1.00  0.00     0.011 C 
HETATM   19  C27 UNL     1      -0.262  10.810  19.031  1.00  0.00     0.033 C 
HETATM   20  C28 UNL     1       0.012  11.033  17.555  1.00  0.00     0.136 C 
HETATM   21  C35 UNL     1       1.530  10.848  17.207  1.00  0.00     0.014 C 
HETATM   22  C36 UNL     1       1.793  11.831  16.029  1.00  0.00     0.021 C 
HETATM   23  C37 UNL     1       1.807   9.420  16.672  1.00  0.00     0.021 C 
ENDROOT
BRANCH  20  24
HETATM   24  O4  UNL     1      -0.788  10.181  16.721  1.00  0.00    -0.352 OA
BRANCH  24  25
HETATM   25  C29 UNL     1      -1.343  10.815  15.570  1.00  0.00     0.292 C 
HETATM   26  O5  UNL     1      -2.533  11.531  15.900  1.00  0.00    -0.348 OA
HETATM   27  C30 UNL     1      -3.599  10.729  16.437  1.00  0.00     0.179 C 
HETATM   28  C32 UNL     1      -3.580   9.265  15.963  1.00  0.00     0.180 C 
HETATM   29  C33 UNL     1      -3.064   9.231  14.532  1.00  0.00     0.183 C 
HETATM   30  C34 UNL     1      -1.625   9.761  14.469  1.00  0.00     0.204 C 
BRANCH  27  31
HETATM   31  C31 UNL     1      -3.662  10.803  17.969  1.00  0.00     0.198 C 
BRANCH  31  32
HETATM   32  O6  UNL     1      -3.271   9.581  18.590  1.00  0.00    -0.398 OA
HETATM   33  H48 UNL     1      -2.688   9.095  17.968  1.00  0.00     0.209 HD
ENDBRANCH  31  32
ENDBRANCH  27  31
BRANCH  28  34
HETATM   34  O7  UNL     1      -4.898   8.708  16.038  1.00  0.00    -0.390 OA
HETATM   35  H50 UNL     1      -4.846   7.884  15.504  1.00  0.00     0.210 HD
ENDBRANCH  28  34
BRANCH  29  36
HETATM   36  O8  UNL     1      -3.131   7.884  14.035  1.00  0.00    -0.390 OA
HETATM   37  H52 UNL     1      -2.707   7.897  13.156  1.00  0.00     0.210 HD
ENDBRANCH  29  36
BRANCH  30  38
HETATM   38  O9  UNL     1      -1.432  10.310  13.148  1.00  0.00    -0.388 OA
HETATM   39  H54 UNL     1      -1.929  11.147  13.104  1.00  0.00     0.210 HD
ENDBRANCH  30  38
ENDBRANCH  24  25
ENDBRANCH  20  24
BRANCH   1  40
HETATM   40  O1  UNL     1       4.059   9.819  21.197  1.00  0.00    -0.365 OA
HETATM   41  C1  UNL     1       3.809   9.216  22.458  1.00  0.00     0.204 C 
ENDBRANCH   1  40
BRANCH  12  42
HETATM   42  C13 UNL     1       4.823  16.432  23.639  1.00  0.00    -0.010 C 
HETATM   43  C14 UNL     1       3.374  16.619  24.138  1.00  0.00     0.010 C 
BRANCH  42  44
HETATM   44  C15 UNL     1       5.601  17.753  23.851  1.00  0.00     0.031 C 
BRANCH  44  45
HETATM   45  C16 UNL     1       6.804  17.719  24.748  1.00  0.00    -0.027 C 
HETATM   46  C17 UNL     1       7.601  16.647  24.899  1.00  0.00     0.006 C 
BRANCH  46  47
HETATM   47  C18 UNL     1       8.827  16.538  25.771  1.00  0.00     0.068 C 
HETATM   48  C19 UNL     1       8.569  16.554  27.282  1.00  0.00     0.050 C 
HETATM   49  C20 UNL     1       9.826  17.634  25.405  1.00  0.00     0.050 C 
BRANCH  47  50
HETATM   50  O3  UNL     1       9.434  15.284  25.454  1.00  0.00    -0.387 OA
HETATM   51  H30 UNL     1       8.764  14.597  25.618  1.00  0.00     0.211 HD
ENDBRANCH  47  50
ENDBRANCH  46  47
ENDBRANCH  44  45
ENDBRANCH  42  44
ENDBRANCH  12  42
TORSDOF 13
ENDMDL
