MODEL 1
REMARK minimizedAffinity -9.70772457
REMARK  4 active torsions:
REMARK  status: ('A' for Active; 'I' for Inactive)
REMARK    1  A    between atoms: C13_14  and  O2_15 
REMARK    2  A    between atoms: C22_24  and  O3_25 
REMARK    3  A    between atoms: C22_24  and  C23_26 
REMARK    4  A    between atoms: C23_26  and  O4_27 
ROOT
HETATM    1  C1  UNL     1      -2.667  50.833 -18.330  1.00  0.00     0.078 C 
HETATM    2  C2  UNL     1      -3.696  49.848 -18.894  1.00  0.00     0.157 C 
HETATM    3  C3  UNL     1      -4.243  49.024 -17.723  1.00  0.00     0.078 C 
HETATM    4  O1  UNL     1      -4.824  50.503 -19.455  1.00  0.00    -0.355 OA
HETATM    5  C4  UNL     1      -4.552  51.127 -20.702  1.00  0.00     0.183 C 
HETATM    6  C5  UNL     1      -4.063  50.107 -21.760  1.00  0.00     0.011 C 
HETATM    7  C6  UNL     1      -5.241  49.142 -22.044  1.00  0.00     0.020 C 
HETATM    8  C7  UNL     1      -2.912  49.283 -21.131  1.00  0.00     0.136 C 
HETATM    9  C8  UNL     1      -1.546  49.926 -21.347  1.00  0.00     0.034 C 
HETATM   10  C9  UNL     1      -1.161  49.886 -22.825  1.00  0.00     0.013 C 
HETATM   11  C10 UNL     1      -2.330  50.231 -23.808  1.00  0.00    -0.029 C 
HETATM   12  C11 UNL     1      -2.754  48.888 -24.473  1.00  0.00     0.016 C 
HETATM   13  C12 UNL     1      -3.564  50.890 -23.051  1.00  0.00     0.036 C 
HETATM   14  C13 UNL     1      -4.696  51.323 -24.036  1.00  0.00     0.124 C 
HETATM   15  C14 UNL     1      -4.207  52.196 -25.205  1.00  0.00     0.037 C 
HETATM   16  C15 UNL     1      -2.988  51.589 -25.875  1.00  0.00    -0.002 C 
HETATM   17  C16 UNL     1      -2.311  52.399 -26.984  1.00  0.00     0.013 C 
HETATM   18  C17 UNL     1      -0.815  51.980 -26.918  1.00  0.00     0.023 C 
HETATM   19  C18 UNL     1      -0.811  50.779 -25.939  1.00  0.00     0.018 C 
HETATM   20  C19 UNL     1      -1.833  51.270 -24.893  1.00  0.00    -0.028 C 
HETATM   21  C20 UNL     1      -1.288  52.613 -24.239  1.00  0.00     0.014 C 
HETATM   22  C21 UNL     1       0.050  53.111 -24.807  1.00  0.00     0.041 C 
HETATM   23  C22 UNL     1       0.125  53.065 -26.347  1.00  0.00     0.083 C 
HETATM   24  O5  UNL     1      -3.116  48.898 -19.775  1.00  0.00    -0.350 OA
ENDROOT
BRANCH  23  25
HETATM   25  O3  UNL     1       1.473  52.660 -26.675  1.00  0.00    -0.387 OA
HETATM   26  H35 UNL     1       2.014  53.466 -26.539  1.00  0.00     0.210 HD
ENDBRANCH  23  25
BRANCH  23  27
HETATM   27  C23 UNL     1      -0.063  54.457 -26.988  1.00  0.00     0.202 C 
BRANCH  27  28
HETATM   28  O4  UNL     1       0.284  55.463 -26.026  1.00  0.00    -0.398 OA
HETATM   29  H38 UNL     1       0.162  56.323 -26.466  1.00  0.00     0.209 HD
ENDBRANCH  27  28
ENDBRANCH  23  27
BRANCH  14  30
HETATM   30  O2  UNL     1      -5.682  52.078 -23.337  1.00  0.00    -0.395 OA
HETATM   31  H22 UNL     1      -6.428  52.223 -23.946  1.00  0.00     0.210 HD
ENDBRANCH  14  30
TORSDOF 4
ENDMDL
