MODEL 1
REMARK minimizedAffinity -7.25506973
REMARK CNNscore 0.516298056
REMARK CNNaffinity 6.98166704
REMARK  9 active torsions:
REMARK  status: ('A' for Active; 'I' for Inactive)
REMARK       I    between atoms: C2_2  and  N1_4 
REMARK    1  A    between atoms: N1_4  and  C3_5 
REMARK    2  A    between atoms: C3_5  and  C4_6 
REMARK    3  A    between atoms: C3_5  and  C33_42 
REMARK    4  A    between atoms: C4_6  and  S1_7 
REMARK    5  A    between atoms: S1_7  and  C5_8 
REMARK    6  A    between atoms: C10_14  and  O3_15 
REMARK    7  A    between atoms: C27_33  and  O5_34 
REMARK    8  A    between atoms: C30_38  and  O7_39 
REMARK    9  A    between atoms: C33_42  and  O9_44 
ROOT
HETATM    1  C5  UNL     1       2.373  15.259  -2.798  1.00  0.00     0.054 C 
HETATM    2  C6  UNL     1       3.350  14.336  -2.614  1.00  0.00     0.028 C 
HETATM    3  C7  UNL     1       3.314  13.514  -3.804  1.00  0.00     0.089 C 
HETATM    4  C8  UNL     1       4.055  12.417  -3.963  1.00  0.00     0.095 C 
HETATM    5  C9  UNL     1       4.969  12.069  -2.866  1.00  0.00     0.208 C 
HETATM    6  O2  UNL     1       5.647  11.037  -2.913  1.00  0.00    -0.285 OA
HETATM    7  C10 UNL     1       5.130  13.007  -1.691  1.00  0.00     0.126 C 
HETATM    8  C11 UNL     1       4.361  14.119  -1.559  1.00  0.00     0.022 C 
HETATM    9  C12 UNL     1       4.624  15.253  -0.535  1.00  0.00     0.165 C 
HETATM   10  O4  UNL     1       4.788  16.473  -1.310  1.00  0.00    -0.375 OA
HETATM   11  C13 UNL     1       4.809  17.642  -0.496  1.00  0.00     0.128 C 
HETATM   12  C14 UNL     1       4.451  18.932  -1.263  1.00  0.00     0.033 C 
HETATM   13  C15 UNL     1       4.663  18.980  -2.779  1.00  0.00     0.010 C 
HETATM   14  C16 UNL     1       3.995  20.206  -3.484  1.00  0.00     0.004 C 
HETATM   15  C17 UNL     1       4.382  21.532  -2.835  1.00  0.00     0.014 C 
HETATM   16  C18 UNL     1       2.476  20.103  -3.584  1.00  0.00    -0.020 C 
HETATM   17  C19 UNL     1       1.716  20.297  -4.687  1.00  0.00    -0.087 C 
HETATM   18  C20 UNL     1       2.262  20.847  -5.974  1.00  0.00     0.043 C 
HETATM   19  C21 UNL     1       0.243  19.882  -4.689  1.00  0.00     0.037 C 
HETATM   20  C22 UNL     1      -0.064  18.458  -5.275  1.00  0.00    -0.014 C 
HETATM   21  C23 UNL     1      -0.146  18.461  -6.799  1.00  0.00     0.010 C 
HETATM   22  C24 UNL     1       0.997  17.488  -4.753  1.00  0.00     0.014 C 
HETATM   23  C25 UNL     1       1.006  15.983  -5.062  1.00  0.00     0.050 C 
HETATM   24  C26 UNL     1      -0.301  15.219  -4.881  1.00  0.00     0.016 C 
HETATM   25  C27 UNL     1       2.227  15.349  -4.328  1.00  0.00     0.207 C 
HETATM   26  O6  UNL     1       2.430  13.980  -4.758  1.00  0.00    -0.308 OA
HETATM   27  C28 UNL     1       6.150  17.663   0.240  1.00  0.00     0.040 C 
HETATM   28  C29 UNL     1       7.354  17.620  -0.696  1.00  0.00     0.015 C 
HETATM   29  C30 UNL     1       6.110  16.472   1.205  1.00  0.00     0.130 C 
HETATM   30  C31 UNL     1       5.780  15.127   0.516  1.00  0.00     0.044 C 
HETATM   31  C32 UNL     1       5.412  14.109   1.605  1.00  0.00     0.015 C 
ENDROOT
BRANCH   1  32
HETATM   32  S1  UNL     1       1.747  16.324  -1.592  1.00  0.00    -0.125 SA
BRANCH  32  33
HETATM   33  C4  UNL     1       1.404  15.312  -0.132  1.00  0.00     0.115 C 
BRANCH  33  34
HETATM   34  C3  UNL     1      -0.069  15.030   0.179  1.00  0.00     0.192 C 
BRANCH  34  35
HETATM   35  N1  UNL     1      -0.164  13.938   1.157  1.00  0.00    -0.346 N 
HETATM   36  C2  UNL     1      -1.370  13.648   1.761  1.00  0.00     0.214 C 
HETATM   37  C1  UNL     1      -1.311  12.517   2.750  1.00  0.00     0.117 C 
HETATM   38  O1  UNL     1      -2.402  14.277   1.525  1.00  0.00    -0.274 OA
HETATM   39  H4  UNL     1       0.506  13.176   1.099  1.00  0.00     0.163 HD
ENDBRANCH  34  35
BRANCH  34  40
HETATM   40  C33 UNL     1      -0.752  14.671  -1.143  1.00  0.00     0.164 C 
HETATM   41  O8  UNL     1      -1.548  15.363  -1.764  1.00  0.00    -0.648 OA
BRANCH  40  42
HETATM   42  O9  UNL     1      -0.318  13.502  -1.692  1.00  0.00    -0.775 OA
HETATM   43  H47 UNL     1      -0.910  13.412  -2.473  1.00  0.00     0.167 HD
ENDBRANCH  40  42
ENDBRANCH  34  40
ENDBRANCH  33  34
ENDBRANCH  32  33
ENDBRANCH   1  32
BRANCH  25  44
HETATM   44  O5  UNL     1       3.387  16.086  -4.800  1.00  0.00    -0.360 OA
HETATM   45  H36 UNL     1       3.352  16.018  -5.769  1.00  0.00     0.213 HD
ENDBRANCH  25  44
BRANCH   7  46
HETATM   46  O3  UNL     1       6.146  12.664  -0.822  1.00  0.00    -0.356 OA
HETATM   47  H9  UNL     1       6.490  11.794  -1.154  1.00  0.00     0.218 HD
ENDBRANCH   7  46
BRANCH  29  48
HETATM   48  O7  UNL     1       7.339  16.377   1.920  1.00  0.00    -0.395 OA
HETATM   49  H42 UNL     1       7.161  15.860   2.728  1.00  0.00     0.210 HD
ENDBRANCH  29  48
TORSDOF 9
ENDMDL
