MODEL 1
REMARK minimizedAffinity -8.42590046
REMARK  7 active torsions:
REMARK  status: ('A' for Active; 'I' for Inactive)
REMARK    1  A    between atoms: N1_2  and  C2_3 
REMARK    2  A    between atoms: C2_3  and  C3_4 
REMARK    3  A    between atoms: C5_6  and  O1_7 
REMARK    4  A    between atoms: C25_28  and  N2_29 
REMARK    5  A    between atoms: C25_28  and  C26_30 
REMARK    6  A    between atoms: C26_30  and  C27_31 
REMARK    7  A    between atoms: C27_31  and  O3_32 
ROOT
HETATM    1  C3  UNL     1      -0.592   9.833  16.602  1.00  0.00    -0.021 A 
HETATM    2  C4  UNL     1       0.058  11.003  17.053  1.00  0.00     0.045 A 
HETATM    3  C5  UNL     1       1.441  11.090  17.066  1.00  0.00     0.066 A 
HETATM    4  C6  UNL     1       2.208   9.997  16.704  1.00  0.00     0.045 A 
HETATM    5  C7  UNL     1       1.609   8.789  16.290  1.00  0.00    -0.037 A 
HETATM    6  C8  UNL     1       0.191   8.712  16.163  1.00  0.00    -0.042 A 
HETATM    7  C9  UNL     1      -0.507   7.448  15.662  1.00  0.00     0.044 C 
HETATM    8  C10 UNL     1      -0.857   7.280  14.148  1.00  0.00    -0.010 C 
HETATM    9  C11 UNL     1      -1.627   8.434  13.495  1.00  0.00     0.005 C 
HETATM   10  C12 UNL     1      -1.782   8.208  11.991  1.00  0.00     0.001 C 
HETATM   11  C13 UNL     1      -0.443   8.119  11.257  1.00  0.00     0.007 C 
HETATM   12  C14 UNL     1       0.756   7.819  12.187  1.00  0.00     0.022 C 
HETATM   13  C15 UNL     1       0.307   6.792  13.257  1.00  0.00     0.012 C 
HETATM   14  C16 UNL     1       2.062   7.416  11.391  1.00  0.00     0.082 C 
HETATM   15  C17 UNL     1       2.143   5.887  11.134  1.00  0.00     0.045 C 
HETATM   16  C18 UNL     1       3.385   5.510  10.300  1.00  0.00    -0.002 C 
HETATM   17  C19 UNL     1       3.045   4.686   9.048  1.00  0.00     0.005 C 
HETATM   18  C20 UNL     1       2.971   5.524   7.781  1.00  0.00     0.003 C 
HETATM   19  C21 UNL     1       2.344   6.882   8.053  1.00  0.00     0.038 C 
HETATM   20  C22 UNL     1       3.064   7.682   9.182  1.00  0.00     0.065 C 
HETATM   21  C23 UNL     1       3.611   8.973   8.563  1.00  0.00     0.046 C 
HETATM   22  O2  UNL     1       2.016   8.086  10.096  1.00  0.00    -0.367 OA
HETATM   23  C24 UNL     1       4.134   6.829   9.949  1.00  0.00     0.064 C 
HETATM   24  C25 UNL     1       4.636   7.480  11.294  1.00  0.00     0.180 C 
HETATM   25  C28 UNL     1       3.360   7.994  12.053  1.00  0.00     0.139 C 
HETATM   26  C29 UNL     1       3.383   7.818  13.515  1.00  0.00    -0.096 C 
HETATM   27  C30 UNL     1       3.150   7.728  14.686  1.00  0.00    -0.101 C 
HETATM   28  C31 UNL     1       2.580   7.645  16.035  1.00  0.00     0.133 C 
ENDROOT
BRANCH  24  29
HETATM   29  N2  UNL     1       5.363   6.433  12.066  1.00  0.00     0.090 N 
HETATM   30  H35 UNL     1       5.640   6.799  12.980  1.00  0.00     0.313 HD
HETATM   31  H36 UNL     1       6.221   6.150  11.596  1.00  0.00     0.313 HD
ENDBRANCH  24  29
BRANCH  24  32
HETATM   32  C26 UNL     1       5.655   8.651  11.137  1.00  0.00     0.069 C 
BRANCH  32  33
HETATM   33  C27 UNL     1       5.245   9.986  11.756  1.00  0.00     0.166 C 
BRANCH  33  34
HETATM   34  O3  UNL     1       5.931  11.048  11.102  1.00  0.00    -0.401 OA
HETATM   35  H41 UNL     1       6.887  10.909  11.226  1.00  0.00     0.209 HD
ENDBRANCH  33  34
ENDBRANCH  32  33
ENDBRANCH  24  32
BRANCH   3  36
HETATM   36  O1  UNL     1       2.087  12.219  17.461  1.00  0.00    -0.361 OA
HETATM   37  H8  UNL     1       1.423  12.908  17.627  1.00  0.00     0.217 HD
ENDBRANCH   3  36
BRANCH   1  38
HETATM   38  C2  UNL     1      -2.110   9.742  16.745  1.00  0.00     0.308 C 
BRANCH  38  39
HETATM   39  N1  UNL     1      -2.593   9.590  18.127  1.00  0.00     0.083 N 
HETATM   40  C1  UNL     1      -3.414  10.733  18.511  1.00  0.00     0.307 C 
HETATM   41  H4  UNL     1      -1.783   9.545  18.748  1.00  0.00     0.315 HD
ENDBRANCH  38  39
ENDBRANCH   1  38
TORSDOF 7
ENDMDL
