MODEL 1
REMARK minimizedAffinity -5.97885227
REMARK CNNscore 0.440478444
REMARK CNNaffinity 6.14347839
REMARK  5 active torsions:
REMARK  status: ('A' for Active; 'I' for Inactive)
REMARK    1  A    between atoms: C2_2  and  C3_3 
REMARK    2  A    between atoms: C3_3  and  N1_4 
REMARK    3  A    between atoms: C4_5  and  S1_6 
REMARK    4  A    between atoms: S1_6  and  C5_7 
REMARK    5  A    between atoms: C21_31  and  C22_32 
ROOT
HETATM    1  C5  UNL     1      12.369  63.268   5.259  1.00  0.00     0.093 A 
HETATM    2  C6  UNL     1      12.353  64.484   5.875  1.00  0.00    -0.016 A 
HETATM    3  C7  UNL     1      11.553  64.750   7.143  1.00  0.00     0.042 C 
HETATM    4  C8  UNL     1      11.309  66.213   7.485  1.00  0.00     0.005 C 
HETATM    5  C9  UNL     1      12.612  66.979   7.412  1.00  0.00     0.005 C 
HETATM    6  C10 UNL     1      13.138  66.951   5.985  1.00  0.00     0.041 C 
HETATM    7  C11 UNL     1      13.201  65.575   5.336  1.00  0.00    -0.025 A 
HETATM    8  C12 UNL     1      14.002  65.360   4.260  1.00  0.00     0.096 A 
HETATM    9  C13 UNL     1      14.813  66.402   3.706  1.00  0.00     0.104 C 
HETATM   10  N2  UNL     1      15.439  67.289   3.294  1.00  0.00    -0.191 NA
HETATM   11  C14 UNL     1      14.014  64.087   3.619  1.00  0.00     0.135 A 
HETATM   12  N3  UNL     1      14.713  63.697   2.576  1.00  0.00    -0.339 N 
ATOM     13  H3  UNL     1      15.401  64.242   2.056  1.00  0.00     0.167 HD
HETATM   14  C15 UNL     1      14.328  62.414   2.335  1.00  0.00     0.061 A 
HETATM   15  C16 UNL     1      14.776  61.555   1.317  1.00  0.00     0.032 A 
HETATM   16  C17 UNL     1      14.229  60.276   1.217  1.00  0.00     0.002 A 
HETATM   17  C18 UNL     1      13.246  59.862   2.109  1.00  0.00     0.002 A 
HETATM   18  C19 UNL     1      12.791  60.707   3.129  1.00  0.00     0.032 A 
HETATM   19  C20 UNL     1      13.357  61.991   3.242  1.00  0.00     0.068 A 
HETATM   20  N4  UNL     1      13.180  63.078   4.109  1.00  0.00    -0.287 N 
ENDROOT
BRANCH   1  21
HETATM   21  S1  UNL     1      11.450  61.927   5.908  1.00  0.00    -0.033 SA
BRANCH  21  22
HETATM   22  C4  UNL     1      12.664  61.295   6.977  1.00  0.00     0.169 A 
HETATM   23  N1  UNL     1      12.403  60.415   7.994  1.00  0.00    -0.307 N 
HETATM   24  C21 UNL     1      13.625  60.166   8.590  1.00  0.00     0.135 A 
HETATM   25  N6  UNL     1      14.542  60.894   7.981  1.00  0.00    -0.283 N 
HETATM   26  N5  UNL     1      13.942  61.588   6.960  1.00  0.00    -0.278 N 
ATOM     27  H6  UNL     1      15.531  60.935   8.228  1.00  0.00     0.188 HD
ATOM     28  H5  UNL     1      14.407  62.218   6.306  1.00  0.00     0.189 HD
BRANCH  23  29
HETATM   29  C3  UNL     1      11.107  59.948   8.454  1.00  0.00     0.159 C 
BRANCH  29  30
HETATM   30  C2  UNL     1      10.686  60.593   9.745  1.00  0.00    -0.017 C 
HETATM   31  C1  UNL     1      10.846  61.893  10.029  1.00  0.00     0.008 C 
ENDBRANCH  29  30
ENDBRANCH  23  29
BRANCH  24  32
HETATM   32  C22 UNL     1      13.863  59.293   9.732  1.00  0.00     0.009 A 
HETATM   33  C23 UNL     1      13.524  57.936   9.651  1.00  0.00     0.015 A 
HETATM   34  C24 UNL     1      13.752  57.086  10.734  1.00  0.00     0.001 A 
HETATM   35  C25 UNL     1      14.310  57.586  11.910  1.00  0.00     0.000 A 
HETATM   36  C26 UNL     1      14.631  58.939  12.007  1.00  0.00     0.001 A 
HETATM   37  C27 UNL     1      14.403  59.791  10.924  1.00  0.00     0.015 A 
ENDBRANCH  24  32
ENDBRANCH  21  22
ENDBRANCH   1  21
TORSDOF 5
ENDMDL
