MODEL 1
REMARK minimizedAffinity -6.15921211
REMARK CNNscore 0.580027759
REMARK CNNaffinity 6.19985771
REMARK  8 active torsions:
REMARK  status: ('A' for Active; 'I' for Inactive)
REMARK    1  A    between atoms: C4_4  and  C5_5 
REMARK    2  A    between atoms: C5_5  and  C6_6 
REMARK    3  A    between atoms: C6_6  and  C7_7 
REMARK    4  A    between atoms: C9_9  and  C10_10 
REMARK    5  A    between atoms: C11_11  and  C12_12 
REMARK    6  A    between atoms: C14_14  and  C15_15 
REMARK    7  A    between atoms: C24_25  and  C26_27 
REMARK    8  A    between atoms: C29_31  and  O3_33 
ROOT
HETATM    1  C15 UNL     1     -15.981   0.727  28.656  1.00  0.00     0.149 C 
HETATM    2  C16 UNL     1     -15.799   0.979  27.164  1.00  0.00     0.054 C 
HETATM    3  C17 UNL     1     -15.336   2.451  27.051  1.00  0.00     0.050 C 
HETATM    4  C18 UNL     1     -14.841   2.714  28.505  1.00  0.00     0.272 C 
HETATM    5  O1  UNL     1     -13.553   3.300  28.591  1.00  0.00    -0.360 OA
HETATM    6  C19 UNL     1     -12.474   2.382  28.624  1.00  0.00     0.171 C 
HETATM    7  C20 UNL     1     -12.459   1.420  27.450  1.00  0.00     0.027 C 
HETATM    8  C21 UNL     1     -12.815   2.093  26.132  1.00  0.00     0.012 C 
HETATM    9  C22 UNL     1     -14.262   2.625  25.910  1.00  0.00     0.032 C 
HETATM   10  C23 UNL     1     -14.199   4.055  25.302  1.00  0.00    -0.066 C 
HETATM   11  C24 UNL     1     -13.768   4.287  24.032  1.00  0.00    -0.021 C 
HETATM   12  C25 UNL     1     -13.340   3.230  23.043  1.00  0.00     0.052 C 
HETATM   13  C27 UNL     1     -14.683   5.122  26.260  1.00  0.00     0.038 C 
HETATM   14  C28 UNL     1     -16.116   4.878  26.744  1.00  0.00     0.042 C 
HETATM   15  C29 UNL     1     -16.557   3.397  26.723  1.00  0.00     0.067 C 
HETATM   16  C30 UNL     1     -17.262   3.090  25.380  1.00  0.00     0.047 C 
HETATM   17  O4  UNL     1     -14.952   1.503  29.259  1.00  0.00    -0.351 OA
ENDROOT
BRANCH   1  18
HETATM   18  C14 UNL     1     -15.870  -0.737  28.996  1.00  0.00     0.011 C 
HETATM   19  C12 UNL     1     -16.663  -1.512  29.769  1.00  0.00    -0.063 C 
HETATM   20  C13 UNL     1     -17.949  -1.033  30.394  1.00  0.00     0.048 C 
BRANCH  19  21
HETATM   21  C11 UNL     1     -16.272  -2.908  29.985  1.00  0.00     0.006 C 
HETATM   22  C10 UNL     1     -15.724  -3.738  29.080  1.00  0.00     0.001 C 
BRANCH  22  23
HETATM   23  C9  UNL     1     -15.381  -5.111  29.393  1.00  0.00     0.002 C 
HETATM   24  C7  UNL     1     -14.152  -5.612  29.637  1.00  0.00    -0.084 C 
HETATM   25  C8  UNL     1     -12.864  -4.831  29.622  1.00  0.00     0.043 C 
BRANCH  24  26
HETATM   26  C6  UNL     1     -13.993  -7.097  29.927  1.00  0.00     0.037 C 
BRANCH  26  27
HETATM   27  C5  UNL     1     -12.584  -7.615  29.619  1.00  0.00     0.031 C 
BRANCH  27  28
HETATM   28  C4  UNL     1     -12.623  -8.992  29.012  1.00  0.00    -0.024 C 
HETATM   29  C2  UNL     1     -13.196  -9.359  27.848  1.00  0.00    -0.091 C 
HETATM   30  C1  UNL     1     -13.871  -8.420  26.887  1.00  0.00     0.042 C 
HETATM   31  C3  UNL     1     -13.188 -10.801  27.408  1.00  0.00     0.042 C 
ENDBRANCH  27  28
ENDBRANCH  26  27
ENDBRANCH  24  26
ENDBRANCH  22  23
ENDBRANCH  19  21
ENDBRANCH   1  18
BRANCH  15  32
HETATM   32  O3  UNL     1     -17.572   3.229  27.725  1.00  0.00    -0.389 OA
HETATM   33  H44 UNL     1     -18.315   3.822  27.513  1.00  0.00     0.210 HD
ENDBRANCH  15  32
BRANCH  11  34
HETATM   34  C26 UNL     1     -13.659   5.669  23.452  1.00  0.00     0.265 C 
HETATM   35  O2  UNL     1     -12.677   6.384  23.625  1.00  0.00    -0.302 OA
ENDBRANCH  11  34
TORSDOF 8
ENDMDL
