MODEL 1
REMARK minimizedAffinity -9.40538406
REMARK  6 active torsions:
REMARK  status: ('A' for Active; 'I' for Inactive)
REMARK    1  A    between atoms: C2_2  and  C30_31 
REMARK    2  A    between atoms: C3_3  and  C4_4 
REMARK    3  A    between atoms: C4_4  and  C5_5 
REMARK    4  A    between atoms: C5_5  and  C6_6 
REMARK    5  A    between atoms: C6_6  and  C8_8 
REMARK    6  A    between atoms: C30_31  and  O3_33 
ROOT
HETATM    1  C8  UNL     1      -6.079   7.057  15.079  1.00  0.00    -0.002 C 
HETATM    2  C9  UNL     1      -5.933   8.566  15.464  1.00  0.00     0.007 C 
HETATM    3  C10 UNL     1      -4.538   9.034  14.995  1.00  0.00     0.015 C 
HETATM    4  C11 UNL     1      -4.072   7.933  14.030  1.00  0.00    -0.013 C 
HETATM    5  C12 UNL     1      -4.775   8.221  12.658  1.00  0.00     0.021 C 
HETATM    6  C13 UNL     1      -2.579   7.826  13.694  1.00  0.00    -0.070 C 
HETATM    7  C14 UNL     1      -1.868   8.923  13.375  1.00  0.00    -0.022 C 
HETATM    8  C15 UNL     1      -0.547   8.879  12.672  1.00  0.00     0.034 C 
HETATM    9  C16 UNL     1      -0.371   7.554  11.898  1.00  0.00     0.013 C 
HETATM   10  C17 UNL     1       0.885   7.543  10.953  1.00  0.00     0.018 C 
HETATM   11  C18 UNL     1       2.204   8.004  11.594  1.00  0.00     0.023 C 
HETATM   12  C19 UNL     1       0.613   8.487   9.754  1.00  0.00     0.023 C 
HETATM   13  C20 UNL     1       1.114   6.130  10.392  1.00  0.00     0.135 C 
HETATM   14  O1  UNL     1       1.492   5.934   9.235  1.00  0.00    -0.297 OA
HETATM   15  C21 UNL     1       0.978   4.966  11.342  1.00  0.00     0.080 C 
HETATM   16  C22 UNL     1      -0.354   5.029  12.068  1.00  0.00     0.017 C 
HETATM   17  C23 UNL     1      -0.560   6.335  12.868  1.00  0.00    -0.031 C 
HETATM   18  C24 UNL     1       0.458   6.354  14.046  1.00  0.00     0.016 C 
HETATM   19  C25 UNL     1      -2.007   6.404  13.545  1.00  0.00     0.024 C 
HETATM   20  C26 UNL     1      -3.091   5.450  12.998  1.00  0.00     0.010 C 
HETATM   21  C27 UNL     1      -4.410   5.441  13.821  1.00  0.00     0.011 C 
HETATM   22  C28 UNL     1      -4.597   6.651  14.767  1.00  0.00    -0.029 C 
HETATM   23  C29 UNL     1      -3.889   6.388  16.138  1.00  0.00     0.016 C 
ENDROOT
BRANCH   1  24
HETATM   24  C6  UNL     1      -6.904   6.257  16.134  1.00  0.00    -0.014 C 
HETATM   25  C7  UNL     1      -7.354   4.895  15.591  1.00  0.00     0.010 C 
BRANCH  24  26
HETATM   26  C5  UNL     1      -8.148   7.070  16.581  1.00  0.00     0.008 C 
BRANCH  26  27
HETATM   27  C4  UNL     1      -9.170   7.283  15.456  1.00  0.00     0.028 C 
BRANCH  27  28
HETATM   28  C3  UNL     1      -8.746   6.567  14.203  1.00  0.00    -0.013 C 
HETATM   29  C2  UNL     1      -9.426   6.473  13.041  1.00  0.00     0.008 C 
HETATM   30  C1  UNL     1     -10.786   7.046  12.773  1.00  0.00     0.055 C 
BRANCH  29  31
HETATM   31  C30 UNL     1      -8.850   5.738  11.882  1.00  0.00     0.171 C 
HETATM   32  O2  UNL     1      -8.020   4.848  11.957  1.00  0.00    -0.646 OA
BRANCH  31  33
HETATM   33  O3  UNL     1      -9.311   6.146  10.687  1.00  0.00    -0.773 OA
HETATM   34  H46 UNL     1      -8.828   5.578  10.052  1.00  0.00     0.167 HD
ENDBRANCH  31  33
ENDBRANCH  29  31
ENDBRANCH  27  28
ENDBRANCH  26  27
ENDBRANCH  24  26
ENDBRANCH   1  24
TORSDOF 6
ENDMDL
