MODEL 1
REMARK minimizedAffinity -9.60673904
REMARK  7 active torsions:
REMARK  status: ('A' for Active; 'I' for Inactive)
REMARK    1  A    between atoms: C19_20  and  O2_21 
REMARK    2  A    between atoms: O2_21  and  C20_22 
REMARK    3  A    between atoms: C20_22  and  C21_24 
REMARK    4  A    between atoms: C21_24  and  C22_25 
REMARK    5  A    between atoms: C22_25  and  C23_26 
REMARK       I    between atoms: C23_26  and  N1_28 
REMARK    6  A    between atoms: N1_28  and  C24_29 
REMARK    7  A    between atoms: C24_29  and  C25_30 
ROOT
HETATM    1  C1  UNL     1      -0.722   8.771  12.469  1.00  0.00     0.018 C 
HETATM    2  C2  UNL     1      -0.482   7.307  12.874  1.00  0.00    -0.013 C 
HETATM    3  C3  UNL     1       0.954   7.165  13.425  1.00  0.00     0.012 C 
HETATM    4  C4  UNL     1       2.021   7.119  12.328  1.00  0.00     0.007 C 
HETATM    5  C5  UNL     1       1.772   5.950  11.354  1.00  0.00     0.002 C 
HETATM    6  C6  UNL     1       0.366   6.086  10.706  1.00  0.00    -0.004 C 
HETATM    7  C7  UNL     1       0.308   7.162   9.592  1.00  0.00     0.010 C 
HETATM    8  C8  UNL     1       1.653   7.483   8.945  1.00  0.00     0.035 C 
HETATM    9  C9  UNL     1       2.509   6.252   8.906  1.00  0.00    -0.068 C 
HETATM   10  C10 UNL     1       2.835   5.675   7.736  1.00  0.00     0.053 C 
HETATM   11  C11 UNL     1       3.617   4.418   7.680  1.00  0.00     0.149 C 
HETATM   12  O1  UNL     1       3.974   3.982   6.588  1.00  0.00    -0.293 OA
HETATM   13  C12 UNL     1       3.980   3.729   8.973  1.00  0.00     0.084 C 
HETATM   14  C13 UNL     1       3.055   4.142  10.115  1.00  0.00     0.022 C 
HETATM   15  C14 UNL     1       2.898   5.685  10.269  1.00  0.00    -0.016 C 
HETATM   16  C15 UNL     1       4.259   6.287  10.678  1.00  0.00     0.020 C 
HETATM   17  C16 UNL     1      -0.767   6.294  11.739  1.00  0.00     0.001 C 
HETATM   18  C17 UNL     1      -1.121   4.983  12.478  1.00  0.00     0.008 C 
HETATM   19  C18 UNL     1      -1.562   5.374  13.885  1.00  0.00     0.034 C 
HETATM   20  C19 UNL     1      -1.559   6.901  13.915  1.00  0.00     0.140 C 
ENDROOT
BRANCH  20  21
HETATM   21  O2  UNL     1      -1.236   7.411  15.213  1.00  0.00    -0.315 OA
BRANCH  21  22
HETATM   22  C20 UNL     1      -2.296   7.743  16.002  1.00  0.00     0.259 C 
HETATM   23  O3  UNL     1      -2.375   8.748  16.693  1.00  0.00    -0.265 OA
BRANCH  22  24
HETATM   24  C21 UNL     1      -3.355   6.678  15.896  1.00  0.00     0.120 C 
BRANCH  24  25
HETATM   25  C22 UNL     1      -4.597   7.210  15.193  1.00  0.00     0.112 C 
BRANCH  25  26
HETATM   26  C23 UNL     1      -5.740   6.222  15.263  1.00  0.00     0.218 C 
HETATM   27  O4  UNL     1      -6.367   5.985  16.288  1.00  0.00    -0.274 OA
HETATM   28  N1  UNL     1      -6.001   5.621  14.052  1.00  0.00    -0.357 N 
HETATM   29  H32 UNL     1      -5.545   5.979  13.222  1.00  0.00     0.162 HD
BRANCH  28  30
HETATM   30  C24 UNL     1      -7.117   4.717  13.872  1.00  0.00     0.162 C 
BRANCH  30  31
HETATM   31  C25 UNL     1      -6.755   3.589  12.952  1.00  0.00    -0.025 A 
HETATM   32  C26 UNL     1      -5.635   3.659  12.118  1.00  0.00     0.011 A 
HETATM   33  C27 UNL     1      -5.321   2.586  11.290  1.00  0.00     0.018 A 
HETATM   34  C28 UNL     1      -6.140   1.471  11.324  1.00  0.00     0.087 A 
HETATM   35  N2  UNL     1      -7.228   1.362  12.117  1.00  0.00    -0.375 N 
HETATM   36  C29 UNL     1      -7.509   2.421  12.910  1.00  0.00     0.096 A 
ATOM     37  H2  UNL     1      -7.808   0.524  12.117  1.00  0.00     0.164 HD
ENDBRANCH  30  31
ENDBRANCH  28  30
ENDBRANCH  25  26
ENDBRANCH  24  25
ENDBRANCH  22  24
ENDBRANCH  21  22
ENDBRANCH  20  21
TORSDOF 7
ENDMDL
