MODEL 1
REMARK minimizedAffinity -9.44091034
REMARK  9 active torsions:
REMARK  status: ('A' for Active; 'I' for Inactive)
REMARK    1  A    between atoms: C2_2  and  C3_3 
REMARK    2  A    between atoms: C2_2  and  C9_12 
REMARK    3  A    between atoms: C3_3  and  C4_4 
REMARK    4  A    between atoms: C4_4  and  C5_5 
REMARK    5  A    between atoms: C5_5  and  O1_6 
REMARK    6  A    between atoms: C5_5  and  C6_7 
REMARK    7  A    between atoms: C6_7  and  O2_9 
REMARK    8  A    between atoms: C6_7  and  C8_10 
REMARK    9  A    between atoms: C8_10  and  O3_11 
ROOT
HETATM    1  C9  UNL     1       1.285   6.864  12.977  1.00  0.00    -0.002 C 
HETATM    2  C10 UNL     1       0.529   8.032  13.667  1.00  0.00     0.006 C 
HETATM    3  C11 UNL     1      -0.944   7.605  13.800  1.00  0.00     0.011 C 
HETATM    4  C12 UNL     1      -0.967   6.097  13.470  1.00  0.00    -0.032 C 
HETATM    5  C13 UNL     1      -0.608   5.335  14.785  1.00  0.00     0.016 C 
HETATM    6  C14 UNL     1      -2.324   5.584  12.917  1.00  0.00     0.004 C 
HETATM    7  C15 UNL     1      -3.439   5.471  13.971  1.00  0.00     0.007 C 
HETATM    8  C16 UNL     1      -4.754   5.080  13.297  1.00  0.00     0.007 C 
HETATM    9  C17 UNL     1      -4.682   3.635  12.775  1.00  0.00     0.010 C 
HETATM   10  C18 UNL     1      -5.959   3.141  12.016  1.00  0.00     0.018 C 
HETATM   11  C19 UNL     1      -7.106   2.896  13.012  1.00  0.00     0.023 C 
HETATM   12  C20 UNL     1      -6.452   4.116  10.929  1.00  0.00     0.023 C 
HETATM   13  C21 UNL     1      -5.647   1.794  11.340  1.00  0.00     0.135 C 
HETATM   14  O4  UNL     1      -6.330   1.344  10.421  1.00  0.00    -0.297 OA
HETATM   15  C22 UNL     1      -4.481   1.012  11.890  1.00  0.00     0.080 C 
HETATM   16  C23 UNL     1      -3.202   1.827  11.746  1.00  0.00     0.018 C 
HETATM   17  C24 UNL     1      -3.413   3.330  11.969  1.00  0.00    -0.026 A 
HETATM   18  C25 UNL     1      -2.999   4.227  10.828  1.00  0.00     0.021 A 
HETATM   19  C26 UNL     1      -2.179   4.269  12.107  1.00  0.00    -0.027 A 
HETATM   20  C27 UNL     1      -0.792   3.614  12.068  1.00  0.00     0.011 C 
HETATM   21  C28 UNL     1       0.442   4.533  12.092  1.00  0.00     0.011 C 
HETATM   22  C29 UNL     1       0.133   6.014  12.345  1.00  0.00    -0.032 C 
HETATM   23  C30 UNL     1      -0.310   6.639  10.994  1.00  0.00     0.016 C 
ENDROOT
BRANCH   1  24
HETATM   24  C2  UNL     1       2.553   7.333  12.204  1.00  0.00    -0.014 C 
HETATM   25  C1  UNL     1       2.510   8.729  11.569  1.00  0.00     0.010 C 
BRANCH  24  26
HETATM   26  C3  UNL     1       3.022   6.275  11.177  1.00  0.00     0.007 C 
BRANCH  26  27
HETATM   27  C4  UNL     1       3.400   6.878   9.811  1.00  0.00     0.035 C 
BRANCH  27  28
HETATM   28  C5  UNL     1       2.431   6.512   8.674  1.00  0.00     0.154 C 
BRANCH  28  29
HETATM   29  O1  UNL     1       3.090   5.545   7.842  1.00  0.00    -0.392 OA
HETATM   30  H10 UNL     1       3.081   4.687   8.296  1.00  0.00     0.210 HD
ENDBRANCH  28  29
BRANCH  28  31
HETATM   31  C6  UNL     1       1.985   7.725   7.787  1.00  0.00     0.101 C 
HETATM   32  C7  UNL     1       1.646   7.227   6.368  1.00  0.00     0.051 C 
BRANCH  31  33
HETATM   33  O2  UNL     1       3.039   8.691   7.615  1.00  0.00    -0.385 OA
HETATM   34  H14 UNL     1       3.540   8.748   8.447  1.00  0.00     0.210 HD
ENDBRANCH  31  33
BRANCH  31  35
HETATM   35  C8  UNL     1       0.762   8.453   8.387  1.00  0.00     0.204 C 
BRANCH  35  36
HETATM   36  O3  UNL     1      -0.433   8.228   7.644  1.00  0.00    -0.398 OA
HETATM   37  H17 UNL     1      -0.357   8.728   6.813  1.00  0.00     0.209 HD
ENDBRANCH  35  36
ENDBRANCH  31  35
ENDBRANCH  28  31
ENDBRANCH  27  28
ENDBRANCH  26  27
ENDBRANCH  24  26
ENDBRANCH   1  24
TORSDOF 9
ENDMDL
