MODEL 1
REMARK minimizedAffinity -8.78078079
REMARK CNNscore 0.416966259
REMARK CNNaffinity 6.90313387
REMARK  10 active torsions:
REMARK  status: ('A' for Active; 'I' for Inactive)
REMARK    1  A    between atoms: C14_14  and  C15_15 
REMARK    2  A    between atoms: C15_15  and  C17_17 
REMARK    3  A    between atoms: C17_17  and  C18_18 
REMARK    4  A    between atoms: C18_18  and  C19_19 
REMARK    5  A    between atoms: C20_20  and  C22_22 
REMARK    6  A    between atoms: C22_22  and  O2_24 
REMARK    7  A    between atoms: C27_29  and  C28_30 
REMARK    8  A    between atoms: C28_30  and  C29_31 
REMARK    9  A    between atoms: C29_31  and  C30_32 
REMARK   10  A    between atoms: C30_32  and  O4_34 
ROOT
HETATM    1  C1  UNL     1      -7.434  47.200 -22.574  1.00  0.00     0.043 C 
HETATM    2  C2  UNL     1      -6.404  48.176 -23.111  1.00  0.00    -0.085 C 
HETATM    3  C3  UNL     1      -7.056  49.205 -23.999  1.00  0.00     0.043 C 
HETATM    4  C4  UNL     1      -5.088  48.116 -22.762  1.00  0.00    -0.073 C 
HETATM    5  C5  UNL     1      -4.679  47.217 -21.602  1.00  0.00     0.035 C 
HETATM    6  C6  UNL     1      -3.348  47.602 -20.956  1.00  0.00     0.010 C 
HETATM    7  C7  UNL     1      -3.134  49.134 -20.813  1.00  0.00     0.003 C 
HETATM    8  C8  UNL     1      -3.442  49.956 -22.164  1.00  0.00    -0.032 C 
HETATM    9  C9  UNL     1      -4.611  50.957 -21.953  1.00  0.00     0.016 C 
HETATM   10  C10 UNL     1      -2.222  50.818 -22.615  1.00  0.00     0.011 C 
HETATM   11  C11 UNL     1      -1.433  51.581 -21.529  1.00  0.00     0.011 C 
HETATM   12  C12 UNL     1      -1.495  50.992 -20.108  1.00  0.00    -0.032 C 
HETATM   13  C13 UNL     1      -2.601  51.727 -19.281  1.00  0.00     0.016 C 
HETATM   14  C14 UNL     1      -0.170  51.073 -19.270  1.00  0.00    -0.002 C 
HETATM   15  C23 UNL     1      -0.362  49.917 -18.238  1.00  0.00     0.006 C 
HETATM   16  C24 UNL     1      -1.525  49.036 -18.736  1.00  0.00     0.011 C 
HETATM   17  C25 UNL     1      -1.718  49.444 -20.210  1.00  0.00    -0.032 C 
HETATM   18  C26 UNL     1      -0.608  48.674 -21.007  1.00  0.00     0.016 C 
HETATM   19  C27 UNL     1      -3.881  48.924 -23.291  1.00  0.00     0.024 C 
ENDROOT
BRANCH  14  20
HETATM   20  C15 UNL     1       0.238  52.422 -18.599  1.00  0.00    -0.014 C 
HETATM   21  C16 UNL     1       0.518  53.501 -19.653  1.00  0.00     0.010 C 
BRANCH  20  22
HETATM   22  C17 UNL     1       1.492  52.238 -17.697  1.00  0.00     0.008 C 
BRANCH  22  23
HETATM   23  C18 UNL     1       1.256  52.572 -16.214  1.00  0.00     0.028 C 
BRANCH  23  24
HETATM   24  C19 UNL     1       1.990  51.682 -15.253  1.00  0.00    -0.013 C 
HETATM   25  C20 UNL     1       3.323  51.562 -15.088  1.00  0.00     0.008 C 
HETATM   26  C21 UNL     1       4.377  52.273 -15.880  1.00  0.00     0.055 C 
BRANCH  25  27
HETATM   27  C22 UNL     1       3.775  50.613 -14.037  1.00  0.00     0.171 C 
HETATM   28  O1  UNL     1       4.804  49.960 -14.036  1.00  0.00    -0.646 OA
BRANCH  27  29
HETATM   29  O2  UNL     1       2.900  50.520 -13.022  1.00  0.00    -0.773 OA
HETATM   30  H35 UNL     1       3.317  49.866 -12.423  1.00  0.00     0.167 HD
ENDBRANCH  27  29
ENDBRANCH  25  27
ENDBRANCH  23  24
ENDBRANCH  22  23
ENDBRANCH  20  22
ENDBRANCH  14  20
BRANCH  19  31
HETATM   31  C28 UNL     1      -3.938  49.454 -24.752  1.00  0.00     0.020 C 
BRANCH  31  32
HETATM   32  C29 UNL     1      -3.783  48.348 -25.804  1.00  0.00     0.110 C 
BRANCH  32  33
HETATM   33  C30 UNL     1      -3.528  48.834 -27.200  1.00  0.00     0.139 C 
HETATM   34  O3  UNL     1      -3.760  48.223 -28.230  1.00  0.00    -0.650 OA
BRANCH  33  35
HETATM   35  O4  UNL     1      -2.964  50.055 -27.235  1.00  0.00    -0.776 OA
HETATM   36  H48 UNL     1      -2.886  50.242 -28.194  1.00  0.00     0.167 HD
ENDBRANCH  33  35
ENDBRANCH  32  33
ENDBRANCH  31  32
ENDBRANCH  19  31
TORSDOF 10
ENDMDL
