MODEL 1
REMARK minimizedAffinity -9.86483479
REMARK  11 active torsions:
REMARK  status: ('A' for Active; 'I' for Inactive)
REMARK    1  A    between atoms: C4_4  and  C5_5 
REMARK    2  A    between atoms: C15_15  and  C16_16 
REMARK    3  A    between atoms: C16_16  and  C18_18 
REMARK    4  A    between atoms: C19_19  and  C20_20 
REMARK    5  A    between atoms: C20_20  and  O1_21 
REMARK    6  A    between atoms: C20_20  and  C21_22 
REMARK    7  A    between atoms: C20_20  and  C22_24 
REMARK    8  A    between atoms: C21_22  and  O2_23 
REMARK    9  A    between atoms: C22_24  and  O3_27 
REMARK   10  A    between atoms: C26_29  and  O4_30 
REMARK   11  A    between atoms: C28_32  and  O5_33 
ROOT
HETATM    1  C5  UNL     1      -0.869  50.508 -23.774  1.00  0.00     0.004 C 
HETATM    2  C6  UNL     1      -1.434  50.746 -22.571  1.00  0.00    -0.075 C 
HETATM    3  C7  UNL     1      -2.748  51.462 -22.352  1.00  0.00     0.034 C 
HETATM    4  C8  UNL     1      -3.662  50.779 -21.328  1.00  0.00     0.005 C 
HETATM    5  C9  UNL     1      -3.121  49.448 -20.816  1.00  0.00     0.010 C 
HETATM    6  C10 UNL     1      -1.659  49.515 -20.287  1.00  0.00    -0.032 C 
HETATM    7  C11 UNL     1      -1.184  48.056 -20.177  1.00  0.00     0.016 C 
HETATM    8  C12 UNL     1      -0.728  50.258 -21.306  1.00  0.00     0.023 C 
HETATM    9  C13 UNL     1      -0.074  51.400 -20.528  1.00  0.00     0.010 C 
HETATM   10  C14 UNL     1      -1.048  51.730 -19.419  1.00  0.00     0.007 C 
HETATM   11  C15 UNL     1      -1.594  50.363 -18.947  1.00  0.00     0.002 C 
ENDROOT
BRANCH  11  12
HETATM   12  C16 UNL     1      -0.769  49.803 -17.735  1.00  0.00     0.009 C 
HETATM   13  C17 UNL     1      -1.514  48.732 -16.922  1.00  0.00     0.014 C 
BRANCH  12  14
HETATM   14  C18 UNL     1      -0.334  50.858 -16.723  1.00  0.00    -0.023 C 
HETATM   15  C19 UNL     1       0.892  50.979 -16.177  1.00  0.00     0.012 C 
BRANCH  15  16
HETATM   16  C20 UNL     1       1.350  52.031 -15.166  1.00  0.00     0.126 C 
BRANCH  16  17
HETATM   17  O1  UNL     1       1.396  53.303 -15.837  1.00  0.00    -0.381 OA
HETATM   18  H26 UNL     1       0.980  53.958 -15.246  1.00  0.00     0.211 HD
ENDBRANCH  16  17
BRANCH  16  19
HETATM   19  C21 UNL     1       0.268  52.104 -14.047  1.00  0.00     0.209 C 
BRANCH  19  20
HETATM   20  O2  UNL     1       0.664  53.002 -12.998  1.00  0.00    -0.397 OA
HETATM   21  H29 UNL     1       1.353  53.592 -13.365  1.00  0.00     0.209 HD
ENDBRANCH  19  20
ENDBRANCH  16  19
BRANCH  16  22
HETATM   22  C22 UNL     1       2.780  51.684 -14.597  1.00  0.00     0.087 C 
HETATM   23  C23 UNL     1       2.869  50.226 -14.106  1.00  0.00     0.049 C 
HETATM   24  C24 UNL     1       3.887  51.881 -15.646  1.00  0.00     0.049 C 
BRANCH  22  25
HETATM   25  O3  UNL     1       3.105  52.555 -13.501  1.00  0.00    -0.387 OA
HETATM   26  H36 UNL     1       2.704  52.183 -12.696  1.00  0.00     0.210 HD
ENDBRANCH  22  25
ENDBRANCH  16  22
ENDBRANCH  15  16
ENDBRANCH  12  14
ENDBRANCH  11  12
BRANCH   1  27
HETATM   27  C4  UNL     1      -1.363  50.927 -25.072  1.00  0.00     0.008 C 
HETATM   28  C3  UNL     1      -0.752  51.751 -25.949  1.00  0.00    -0.048 C 
HETATM   29  C2  UNL     1       0.548  52.381 -25.758  1.00  0.00    -0.033 C 
HETATM   30  C25 UNL     1      -1.378  52.026 -27.311  1.00  0.00     0.071 C 
HETATM   31  C1  UNL     1       0.788  53.239 -24.752  1.00  0.00     0.022 C 
HETATM   32  C28 UNL     1       1.579  52.102 -26.833  1.00  0.00     0.153 C 
HETATM   33  C27 UNL     1       0.977  51.564 -28.139  1.00  0.00     0.068 C 
HETATM   34  C26 UNL     1      -0.359  52.228 -28.451  1.00  0.00     0.125 C 
BRANCH  32  35
HETATM   35  O5  UNL     1       2.521  51.143 -26.346  1.00  0.00    -0.391 OA
HETATM   36  H44 UNL     1       2.011  50.504 -25.817  1.00  0.00     0.210 HD
ENDBRANCH  32  35
BRANCH  34  37
HETATM   37  O4  UNL     1      -0.161  53.626 -28.676  1.00  0.00    -0.395 OA
HETATM   38  H40 UNL     1       0.390  53.723 -29.472  1.00  0.00     0.210 HD
ENDBRANCH  34  37
ENDBRANCH   1  27
TORSDOF 11
ENDMDL
