MODEL 1
REMARK minimizedAffinity -8.22456264
REMARK CNNscore 0.410320222
REMARK CNNaffinity 7.0831008
REMARK  12 active torsions:
REMARK  status: ('A' for Active; 'I' for Inactive)
REMARK    1  A    between atoms: C3_3  and  O1_4 
REMARK    2  A    between atoms: N1_14  and  O2_16 
REMARK    3  A    between atoms: O2_16  and  C13_17 
REMARK    4  A    between atoms: C13_17  and  C14_18 
REMARK       I    between atoms: C14_18  and  N2_20 
REMARK    5  A    between atoms: N2_20  and  C15_21 
REMARK    6  A    between atoms: C15_21  and  C16_22 
REMARK    7  A    between atoms: C15_21  and  C26_36 
REMARK       I    between atoms: C16_22  and  N3_24 
REMARK    8  A    between atoms: N3_24  and  C17_25 
REMARK    9  A    between atoms: C17_25  and  C18_26 
REMARK   10  A    between atoms: C17_25  and  C25_33 
REMARK   11  A    between atoms: C18_26  and  C19_27 
REMARK   12  A    between atoms: C25_33  and  O6_35 
ROOT
HETATM    1  C1  UNL     1      -6.350   6.722  14.487  1.00  0.00     0.015 C 
HETATM    2  C2  UNL     1      -5.201   6.921  14.777  1.00  0.00    -0.078 C 
HETATM    3  C3  UNL     1      -3.788   7.149  15.163  1.00  0.00     0.128 C 
HETATM    4  C4  UNL     1      -3.122   5.802  15.482  1.00  0.00     0.052 C 
HETATM    5  C5  UNL     1      -2.378   5.385  14.208  1.00  0.00     0.010 C 
HETATM    6  C6  UNL     1      -2.643   6.484  13.149  1.00  0.00     0.002 C 
HETATM    7  C7  UNL     1      -1.584   6.651  12.019  1.00  0.00    -0.004 C 
HETATM    8  C8  UNL     1      -0.914   5.300  11.685  1.00  0.00     0.010 C 
HETATM    9  C9  UNL     1       0.182   5.395  10.636  1.00  0.00     0.035 C 
HETATM   10  C10 UNL     1       1.192   6.409  11.107  1.00  0.00    -0.069 C 
HETATM   11  C11 UNL     1       2.447   6.029  11.392  1.00  0.00     0.030 C 
HETATM   12  C12 UNL     1       3.415   6.958  12.026  1.00  0.00     0.032 C 
HETATM   13  N1  UNL     1       4.657   6.576  12.091  1.00  0.00    -0.271 N 
ATOM     14  H1  UNL     1       5.006   5.711  11.678  1.00  0.00     0.194 HD
HETATM   15  C29 UNL     1       2.860   8.240  12.604  1.00  0.00     0.060 C 
HETATM   16  C30 UNL     1       1.789   8.814  11.681  1.00  0.00     0.020 C 
HETATM   17  C31 UNL     1       0.656   7.823  11.276  1.00  0.00    -0.016 C 
HETATM   18  C32 UNL     1       0.154   8.337   9.891  1.00  0.00     0.020 C 
HETATM   19  C33 UNL     1      -0.583   7.832  12.256  1.00  0.00     0.002 C 
HETATM   20  C34 UNL     1      -0.289   7.957  13.753  1.00  0.00     0.007 C 
HETATM   21  C35 UNL     1      -1.549   8.291  14.577  1.00  0.00     0.014 C 
HETATM   22  C36 UNL     1      -2.897   7.735  14.017  1.00  0.00     0.003 C 
HETATM   23  C37 UNL     1      -3.640   8.854  13.254  1.00  0.00     0.020 C 
ENDROOT
BRANCH   3  24
HETATM   24  O1  UNL     1      -3.776   7.993  16.307  1.00  0.00    -0.377 OA
HETATM   25  H2  UNL     1      -4.388   7.600  16.954  1.00  0.00     0.211 HD
ENDBRANCH   3  24
BRANCH  13  26
HETATM   26  O2  UNL     1       5.461   7.485  12.792  1.00  0.00    -0.271 OA
BRANCH  26  27
HETATM   27  C13 UNL     1       6.577   6.780  13.322  1.00  0.00     0.303 C 
BRANCH  27  28
HETATM   28  C14 UNL     1       7.709   7.727  13.704  1.00  0.00     0.244 C 
HETATM   29  O3  UNL     1       8.034   8.680  12.998  1.00  0.00    -0.271 OA
HETATM   30  N2  UNL     1       8.390   7.366  14.852  1.00  0.00    -0.346 N 
HETATM   31  H16 UNL     1       7.847   6.820  15.518  1.00  0.00     0.163 HD
BRANCH  30  32
HETATM   32  C15 UNL     1       9.431   8.230  15.412  1.00  0.00     0.180 C 
BRANCH  32  33
HETATM   33  C16 UNL     1      10.419   8.574  14.273  1.00  0.00     0.241 C 
HETATM   34  O4  UNL     1      10.917   7.709  13.554  1.00  0.00    -0.271 OA
HETATM   35  N3  UNL     1      10.692   9.912  14.126  1.00  0.00    -0.345 N 
HETATM   36  H18 UNL     1      10.061  10.578  14.557  1.00  0.00     0.163 HD
BRANCH  35  37
HETATM   37  C17 UNL     1      11.515  10.421  13.025  1.00  0.00     0.186 C 
BRANCH  37  38
HETATM   38  C18 UNL     1      13.004  10.483  13.407  1.00  0.00     0.074 C 
BRANCH  38  39
HETATM   39  C19 UNL     1      13.279  11.069  14.777  1.00  0.00    -0.056 A 
HETATM   40  C20 UNL     1      14.590  11.102  15.276  1.00  0.00     0.007 A 
HETATM   41  C21 UNL     1      14.851  11.619  16.545  1.00  0.00     0.001 A 
HETATM   42  C22 UNL     1      13.807  12.106  17.328  1.00  0.00     0.000 A 
HETATM   43  C23 UNL     1      12.501  12.078  16.840  1.00  0.00     0.001 A 
HETATM   44  C24 UNL     1      12.237  11.563  15.569  1.00  0.00     0.007 A 
ENDBRANCH  38  39
ENDBRANCH  37  38
BRANCH  37  45
HETATM   45  C25 UNL     1      11.038  11.784  12.514  1.00  0.00     0.163 C 
HETATM   46  O5  UNL     1       9.893  12.206  12.565  1.00  0.00    -0.648 OA
BRANCH  45  47
HETATM   47  O6  UNL     1      12.004  12.540  11.950  1.00  0.00    -0.775 OA
HETATM   48  H27 UNL     1      11.539  13.365  11.700  1.00  0.00     0.167 HD
ENDBRANCH  45  47
ENDBRANCH  37  45
ENDBRANCH  35  37
ENDBRANCH  32  33
BRANCH  32  49
HETATM   49  C26 UNL     1       8.791   9.464  16.088  1.00  0.00     0.009 C 
HETATM   50  C27 UNL     1       9.460   9.859  17.407  1.00  0.00     0.012 C 
HETATM   51  C28 UNL     1       7.284   9.295  16.288  1.00  0.00     0.012 C 
ENDBRANCH  32  49
ENDBRANCH  30  32
ENDBRANCH  27  28
ENDBRANCH  26  27
ENDBRANCH  13  26
TORSDOF 12
ENDMDL
