MODEL 1
REMARK minimizedAffinity -9.17847252
REMARK  14 active torsions:
REMARK  status: ('A' for Active; 'I' for Inactive)
REMARK    1  A    between atoms: C2_2  and  C30_34 
REMARK    2  A    between atoms: C3_3  and  C4_4 
REMARK    3  A    between atoms: C4_4  and  C5_5 
REMARK    4  A    between atoms: C5_5  and  C6_6 
REMARK    5  A    between atoms: C6_6  and  C8_8 
REMARK    6  A    between atoms: C16_16  and  C17_17 
REMARK    7  A    between atoms: C17_17  and  O1_19 
REMARK    8  A    between atoms: C17_17  and  C19_20 
REMARK    9  A    between atoms: C19_20  and  O2_21 
REMARK   10  A    between atoms: C20_22  and  C21_23 
REMARK   11  A    between atoms: C21_23  and  C22_24 
REMARK   12  A    between atoms: C22_24  and  C23_25 
REMARK   13  A    between atoms: C23_25  and  O4_27 
REMARK   14  A    between atoms: C30_34  and  O5_35 
ROOT
HETATM    1  C8  UNL     1      -2.002  50.538 -24.861  1.00  0.00    -0.002 C 
HETATM    2  C9  UNL     1      -1.718  52.043 -24.916  1.00  0.00     0.006 C 
HETATM    3  C10 UNL     1      -1.617  52.411 -23.447  1.00  0.00     0.011 C 
HETATM    4  C11 UNL     1      -2.830  51.703 -22.785  1.00  0.00    -0.032 C 
HETATM    5  C12 UNL     1      -4.019  52.700 -22.882  1.00  0.00     0.016 C 
HETATM    6  C13 UNL     1      -2.520  51.453 -21.271  1.00  0.00     0.004 C 
HETATM    7  C14 UNL     1      -3.762  50.960 -20.440  1.00  0.00     0.007 C 
HETATM    8  C15 UNL     1      -3.507  50.237 -19.082  1.00  0.00     0.009 C 
HETATM    9  C16 UNL     1      -2.118  49.538 -18.933  1.00  0.00     0.031 C 
HETATM   10  C20 UNL     1      -1.094  50.539 -19.483  1.00  0.00    -0.025 A 
HETATM   11  C24 UNL     1       0.001  50.521 -20.497  1.00  0.00     0.021 A 
HETATM   12  C25 UNL     1      -1.386  50.469 -21.053  1.00  0.00    -0.027 A 
HETATM   13  C26 UNL     1      -1.430  49.237 -21.963  1.00  0.00     0.011 C 
HETATM   14  C27 UNL     1      -2.678  49.109 -22.823  1.00  0.00     0.011 C 
HETATM   15  C28 UNL     1      -3.025  50.374 -23.658  1.00  0.00    -0.032 C 
HETATM   16  C29 UNL     1      -4.480  50.190 -24.126  1.00  0.00     0.016 C 
ENDROOT
BRANCH   1  17
HETATM   17  C6  UNL     1      -2.229  49.929 -26.279  1.00  0.00    -0.014 C 
HETATM   18  C7  UNL     1      -3.080  50.760 -27.247  1.00  0.00     0.010 C 
BRANCH  17  19
HETATM   19  C5  UNL     1      -2.731  48.468 -26.284  1.00  0.00     0.008 C 
BRANCH  19  20
HETATM   20  C4  UNL     1      -4.205  48.321 -26.683  1.00  0.00     0.028 C 
BRANCH  20  21
HETATM   21  C3  UNL     1      -4.378  48.474 -28.169  1.00  0.00    -0.022 C 
HETATM   22  C2  UNL     1      -5.410  48.066 -28.936  1.00  0.00    -0.064 C 
HETATM   23  C1  UNL     1      -6.619  47.320 -28.440  1.00  0.00     0.045 C 
BRANCH  22  24
HETATM   24  C30 UNL     1      -5.402  48.311 -30.425  1.00  0.00     0.197 C 
BRANCH  24  25
HETATM   25  O5  UNL     1      -4.710  49.521 -30.689  1.00  0.00    -0.397 OA
HETATM   26  H50 UNL     1      -3.838  49.434 -30.265  1.00  0.00     0.209 HD
ENDBRANCH  24  25
ENDBRANCH  22  24
ENDBRANCH  20  21
ENDBRANCH  19  20
ENDBRANCH  17  19
ENDBRANCH   1  17
BRANCH  10  27
HETATM   27  C21 UNL     1      -0.977  51.863 -18.673  1.00  0.00     0.021 C 
BRANCH  27  28
HETATM   28  C22 UNL     1       0.465  52.361 -18.521  1.00  0.00     0.111 C 
BRANCH  28  29
HETATM   29  C23 UNL     1       0.988  52.093 -17.137  1.00  0.00     0.139 C 
HETATM   30  O3  UNL     1       1.076  51.020 -16.565  1.00  0.00    -0.650 OA
BRANCH  29  31
HETATM   31  O4  UNL     1       1.351  53.230 -16.510  1.00  0.00    -0.776 OA
HETATM   32  H38 UNL     1       1.657  52.933 -15.629  1.00  0.00     0.167 HD
ENDBRANCH  29  31
ENDBRANCH  28  29
ENDBRANCH  27  28
ENDBRANCH  10  27
BRANCH   9  33
HETATM   33  C17 UNL     1      -1.833  48.955 -17.516  1.00  0.00     0.080 C 
HETATM   34  C18 UNL     1      -2.581  47.624 -17.333  1.00  0.00     0.048 C 
BRANCH  33  35
HETATM   35  O1  UNL     1      -0.430  48.726 -17.334  1.00  0.00    -0.388 OA
HETATM   36  H30 UNL     1      -0.299  48.292 -16.473  1.00  0.00     0.210 HD
ENDBRANCH  33  35
BRANCH  33  37
HETATM   37  C19 UNL     1      -2.277  49.940 -16.400  1.00  0.00     0.201 C 
BRANCH  37  38
HETATM   38  O2  UNL     1      -3.483  49.557 -15.753  1.00  0.00    -0.398 OA
HETATM   39  H33 UNL     1      -3.287  48.806 -15.168  1.00  0.00     0.209 HD
ENDBRANCH  37  38
ENDBRANCH  33  37
ENDBRANCH   9  33
TORSDOF 14
ENDMDL
