MODEL 1
REMARK minimizedAffinity -6.96431255
REMARK CNNscore 0.3412503
REMARK CNNaffinity 6.45472574
REMARK  6 active torsions:
REMARK  status: ('A' for Active; 'I' for Inactive)
REMARK       I    between atoms: N1_1  and  C1_2 
REMARK       I    between atoms: C1_2  and  N2_3 
REMARK    1  A    between atoms: N3_4  and  C2_6 
REMARK    2  A    between atoms: C11_16  and  S1_17 
REMARK    3  A    between atoms: S1_17  and  O4_20 
REMARK    4  A    between atoms: C23_33  and  O6_34 
REMARK    5  A    between atoms: C29_40  and  C30_41 
REMARK    6  A    between atoms: C30_41  and  O7_42 
ROOT
HETATM    1  C2  UNL     1     -21.290  -0.173  11.861  1.00  0.00     0.263 C 
HETATM    2  O1  UNL     1     -20.303  -0.765  10.951  1.00  0.00    -0.322 OA
HETATM    3  C3  UNL     1     -19.164  -1.226  11.560  1.00  0.00     0.071 C 
HETATM    4  C4  UNL     1     -17.958  -0.690  11.109  1.00  0.00     0.037 C 
HETATM    5  C5  UNL     1     -16.795  -0.883  11.853  1.00  0.00     0.010 C 
HETATM    6  C6  UNL     1     -16.829  -1.644  13.028  1.00  0.00    -0.058 C 
HETATM    7  C7  UNL     1     -18.007  -2.328  13.358  1.00  0.00     0.010 C 
HETATM    8  C8  UNL     1     -19.178  -2.114  12.631  1.00  0.00     0.037 C 
HETATM    9  C9  UNL     1     -15.663  -1.615  13.992  1.00  0.00     0.040 C 
HETATM   10  C10 UNL     1     -15.439  -0.211  14.610  1.00  0.00     0.027 C 
HETATM   11  C11 UNL     1     -16.678   0.431  15.301  1.00  0.00     0.130 C 
HETATM   12  C12 UNL     1     -16.592   1.986  15.536  1.00  0.00     0.037 C 
HETATM   13  C13 UNL     1     -15.864   2.812  14.484  1.00  0.00    -0.014 C 
HETATM   14  C14 UNL     1     -15.861   4.155  14.647  1.00  0.00    -0.050 C 
HETATM   15  C15 UNL     1     -16.401   4.704  15.931  1.00  0.00     0.042 C 
HETATM   16  C16 UNL     1     -17.871   4.303  15.917  1.00  0.00     0.001 C 
HETATM   17  C17 UNL     1     -18.689   5.238  14.980  1.00  0.00     0.038 C 
HETATM   18  C18 UNL     1     -17.945   6.166  13.961  1.00  0.00     0.130 C 
HETATM   19  O5  UNL     1     -17.048   5.462  13.079  1.00  0.00    -0.371 OA
HETATM   20  C19 UNL     1     -15.706   5.132  13.510  1.00  0.00     0.185 C 
HETATM   21  C20 UNL     1     -14.629   6.217  13.716  1.00  0.00    -0.006 A 
HETATM   22  C21 UNL     1     -13.434   5.854  14.387  1.00  0.00     0.014 A 
HETATM   23  C22 UNL     1     -12.382   6.756  14.555  1.00  0.00     0.037 A 
HETATM   24  C23 UNL     1     -12.485   8.037  14.033  1.00  0.00     0.067 A 
HETATM   25  C24 UNL     1     -13.627   8.427  13.347  1.00  0.00     0.057 A 
HETATM   26  C25 UNL     1     -14.684   7.522  13.181  1.00  0.00     0.029 A 
HETATM   27  C26 UNL     1     -15.849   7.978  12.500  1.00  0.00    -0.066 C 
HETATM   28  C27 UNL     1     -16.981   8.103  12.131  1.00  0.00    -0.101 C 
HETATM   29  C28 UNL     1     -18.408   7.862  11.956  1.00  0.00     0.103 C 
HETATM   30  C29 UNL     1     -18.999   6.894  13.035  1.00  0.00     0.049 C 
HETATM   31  C31 UNL     1     -18.016   2.720  15.745  1.00  0.00     0.032 C 
HETATM   32  C32 UNL     1     -19.058   2.214  14.746  1.00  0.00    -0.053 C 
HETATM   33  C33 UNL     1     -20.080   1.357  15.186  1.00  0.00     0.008 C 
HETATM   34  C34 UNL     1     -20.854   0.641  14.267  1.00  0.00     0.012 C 
HETATM   35  C35 UNL     1     -20.652   0.786  12.888  1.00  0.00    -0.010 C 
HETATM   36  C36 UNL     1     -19.749   1.768  12.454  1.00  0.00     0.012 C 
HETATM   37  C37 UNL     1     -18.941   2.444  13.367  1.00  0.00     0.008 C 
ENDROOT
BRANCH   1  38
HETATM   38  N3  UNL     1     -22.252  -1.108  12.481  1.00  0.00    -0.341 N 
HETATM   39  C1  UNL     1     -22.872  -1.917  11.708  1.00  0.00     0.124 C 
HETATM   40  N1  UNL     1     -22.781  -2.091  10.369  1.00  0.00    -0.279 NA
HETATM   41  N2  UNL     1     -23.774  -2.783  12.219  1.00  0.00    -0.279 NA
HETATM   42  H1  UNL     1     -22.814  -3.073  10.122  1.00  0.00     0.126 HD
HETATM   43  H2  UNL     1     -21.936  -1.679   9.979  1.00  0.00     0.126 HD
HETATM   44  H3  UNL     1     -24.629  -2.833  11.675  1.00  0.00     0.126 HD
HETATM   45  H4  UNL     1     -23.971  -2.572  13.195  1.00  0.00     0.126 HD
ATOM     46  H3  UNL     1     -22.415  -1.108  13.488  1.00  0.00     0.164 HD
ENDBRANCH   1  38
BRANCH  11  47
HETATM   47  S1  UNL     1     -16.957  -0.365  16.937  1.00  0.00     0.099 S 
HETATM   48  O2  UNL     1     -16.693  -1.786  16.882  1.00  0.00    -0.601 OA
HETATM   49  O3  UNL     1     -18.158   0.155  17.548  1.00  0.00    -0.601 OA
BRANCH  47  50
HETATM   50  O4  UNL     1     -15.694   0.237  17.741  1.00  0.00    -0.295 OA
HETATM   51  H15 UNL     1     -15.019  -0.472  17.807  1.00  0.00     0.232 HD
ENDBRANCH  47  50
ENDBRANCH  11  47
BRANCH  30  52
HETATM   52  C30 UNL     1     -20.096   7.630  13.821  1.00  0.00     0.172 C 
BRANCH  52  53
HETATM   53  O7  UNL     1     -20.334   8.918  13.269  1.00  0.00    -0.400 OA
HETATM   54  H34 UNL     1     -21.042   9.333  13.793  1.00  0.00     0.209 HD
ENDBRANCH  52  53
ENDBRANCH  30  52
BRANCH  24  55
HETATM   55  O6  UNL     1     -11.433   8.884  14.209  1.00  0.00    -0.361 OA
HETATM   56  H27 UNL     1     -11.590   9.685  13.680  1.00  0.00     0.217 HD
ENDBRANCH  24  55
TORSDOF 6
ENDMDL
