MODEL 1
REMARK minimizedAffinity -7.68991184
REMARK CNNscore 0.628448725
REMARK CNNaffinity 6.88912344
REMARK  4 active torsions:
REMARK  status: ('A' for Active; 'I' for Inactive)
REMARK    1  A    between atoms: C4_4  and  C5_5 
REMARK    2  A    between atoms: C5_5  and  C6_7 
REMARK    3  A    between atoms: C6_7  and  C7_8 
REMARK    4  A    between atoms: C7_8  and  C9_10 
ROOT
HETATM    1  C9  UNL     1      -1.918   8.770  15.367  1.00  0.00    -0.002 C 
HETATM    2  C10 UNL     1      -3.045   9.329  14.447  1.00  0.00     0.006 C 
HETATM    3  C11 UNL     1      -2.644   9.018  12.989  1.00  0.00     0.011 C 
HETATM    4  C12 UNL     1      -1.511   7.983  13.105  1.00  0.00    -0.032 C 
HETATM    5  C13 UNL     1      -2.224   6.602  13.346  1.00  0.00     0.016 C 
HETATM    6  C14 UNL     1      -0.570   7.763  11.873  1.00  0.00     0.004 C 
HETATM    7  C15 UNL     1      -0.656   8.812  10.757  1.00  0.00     0.007 C 
HETATM    8  C16 UNL     1       0.262   8.513   9.554  1.00  0.00     0.007 C 
HETATM    9  C17 UNL     1       1.132   7.238   9.686  1.00  0.00     0.010 C 
HETATM   10  C18 UNL     1       2.187   7.064   8.546  1.00  0.00     0.018 C 
HETATM   11  C19 UNL     1       1.494   7.028   7.170  1.00  0.00     0.023 C 
HETATM   12  C20 UNL     1       3.255   8.168   8.537  1.00  0.00     0.023 C 
HETATM   13  C21 UNL     1       2.911   5.721   8.734  1.00  0.00     0.135 C 
HETATM   14  O2  UNL     1       3.621   5.234   7.851  1.00  0.00    -0.297 OA
HETATM   15  C22 UNL     1       2.707   4.984  10.035  1.00  0.00     0.080 C 
HETATM   16  C23 UNL     1       2.790   5.958  11.196  1.00  0.00     0.018 C 
HETATM   17  C24 UNL     1       1.778   7.090  11.081  1.00  0.00    -0.026 A 
HETATM   18  C25 UNL     1       2.070   8.336  11.875  1.00  0.00     0.021 A 
HETATM   19  C26 UNL     1       0.891   7.467  12.285  1.00  0.00    -0.027 A 
HETATM   20  C27 UNL     1       1.034   6.773  13.632  1.00  0.00     0.011 C 
HETATM   21  C28 UNL     1       0.304   7.475  14.797  1.00  0.00     0.011 C 
HETATM   22  C29 UNL     1      -0.738   8.525  14.367  1.00  0.00    -0.032 C 
HETATM   23  C30 UNL     1      -0.013   9.871  14.103  1.00  0.00     0.016 C 
ENDROOT
BRANCH   1  24
HETATM   24  C7  UNL     1      -1.774   9.543  16.716  1.00  0.00    -0.007 C 
HETATM   25  C8  UNL     1      -3.020   9.669  17.598  1.00  0.00     0.011 C 
BRANCH  24  26
HETATM   26  C6  UNL     1      -0.961  10.854  16.565  1.00  0.00     0.087 C 
BRANCH  26  27
HETATM   27  C5  UNL     1      -1.750  12.151  16.541  1.00  0.00     0.149 C 
HETATM   28  O1  UNL     1      -2.420  12.480  15.562  1.00  0.00    -0.293 OA
BRANCH  27  29
HETATM   29  C4  UNL     1      -1.628  13.138  17.654  1.00  0.00     0.052 C 
HETATM   30  C2  UNL     1      -2.424  13.382  18.714  1.00  0.00    -0.084 C 
HETATM   31  C1  UNL     1      -3.747  12.738  19.021  1.00  0.00     0.043 C 
HETATM   32  C3  UNL     1      -2.024  14.439  19.716  1.00  0.00     0.043 C 
ENDBRANCH  27  29
ENDBRANCH  26  27
ENDBRANCH  24  26
ENDBRANCH   1  24
TORSDOF 4
ENDMDL
