MODEL 1
REMARK minimizedAffinity -7.81674671
REMARK CNNscore 0.514940023
REMARK CNNaffinity 6.55792093
REMARK  9 active torsions:
REMARK  status: ('A' for Active; 'I' for Inactive)
REMARK    1  A    between atoms: C2_2  and  C3_3 
REMARK    2  A    between atoms: C2_2  and  C9_12 
REMARK    3  A    between atoms: C3_3  and  C4_4 
REMARK    4  A    between atoms: C4_4  and  C5_5 
REMARK    5  A    between atoms: C5_5  and  O1_6 
REMARK    6  A    between atoms: C5_5  and  C6_7 
REMARK    7  A    between atoms: C6_7  and  O2_9 
REMARK    8  A    between atoms: C6_7  and  C8_10 
REMARK    9  A    between atoms: C8_10  and  O3_11 
ROOT
HETATM    1  C9  UNL     1       7.389   9.849  15.346  1.00  0.00    -0.002 C 
HETATM    2  C10 UNL     1       8.539   9.330  14.440  1.00  0.00     0.007 C 
HETATM    3  C11 UNL     1       7.892   8.812  13.141  1.00  0.00     0.015 C 
HETATM    4  C12 UNL     1       6.459   9.382  13.148  1.00  0.00    -0.005 C 
HETATM    5  C13 UNL     1       6.549  10.844  12.610  1.00  0.00     0.021 C 
HETATM    6  C14 UNL     1       5.359   8.739  12.311  1.00  0.00    -0.000 C 
HETATM    7  C15 UNL     1       4.057   8.793  12.702  1.00  0.00    -0.060 C 
HETATM    8  C16 UNL     1       3.666   9.454  14.030  1.00  0.00     0.036 C 
HETATM    9  C17 UNL     1       4.798   9.982  14.935  1.00  0.00     0.015 C 
HETATM   10  C18 UNL     1       6.115   9.239  14.688  1.00  0.00    -0.028 C 
HETATM   11  C19 UNL     1       5.933   7.759  15.134  1.00  0.00     0.016 C 
HETATM   12  C20 UNL     1       2.906   8.145  11.885  1.00  0.00    -0.014 C 
HETATM   13  C21 UNL     1       2.704   6.738  12.492  1.00  0.00     0.020 C 
HETATM   14  C22 UNL     1       1.589   8.955  12.005  1.00  0.00     0.021 C 
HETATM   15  C23 UNL     1       0.469   8.430  11.122  1.00  0.00     0.080 C 
HETATM   16  C24 UNL     1       0.887   8.406   9.673  1.00  0.00     0.135 C 
HETATM   17  O4  UNL     1       0.119   8.833   8.809  1.00  0.00    -0.297 OA
HETATM   18  C25 UNL     1       2.223   7.733   9.324  1.00  0.00     0.018 C 
HETATM   19  C26 UNL     1       2.649   8.242   7.922  1.00  0.00     0.023 C 
HETATM   20  C27 UNL     1       1.976   6.222   9.199  1.00  0.00     0.023 C 
HETATM   21  C28 UNL     1       3.315   8.149  10.372  1.00  0.00     0.020 C 
HETATM   22  C29 UNL     1       4.652   7.423  10.193  1.00  0.00     0.090 C 
HETATM   23  C30 UNL     1       5.734   8.074  11.021  1.00  0.00     0.157 C 
HETATM   24  O5  UNL     1       6.901   8.029  10.640  1.00  0.00    -0.293 OA
ENDROOT
BRANCH   1  25
HETATM   25  C2  UNL     1       7.704   9.750  16.871  1.00  0.00    -0.014 C 
HETATM   26  C1  UNL     1       7.079  10.816  17.780  1.00  0.00     0.010 C 
BRANCH  25  27
HETATM   27  C3  UNL     1       9.223   9.642  17.128  1.00  0.00     0.007 C 
BRANCH  27  28
HETATM   28  C4  UNL     1      10.001  10.959  17.277  1.00  0.00     0.035 C 
BRANCH  28  29
HETATM   29  C5  UNL     1      11.421  10.912  17.875  1.00  0.00     0.154 C 
BRANCH  29  30
HETATM   30  O1  UNL     1      12.328  11.445  16.906  1.00  0.00    -0.392 OA
HETATM   31  H10 UNL     1      13.197  11.555  17.341  1.00  0.00     0.210 HD
ENDBRANCH  29  30
BRANCH  29  32
HETATM   32  C6  UNL     1      11.609  11.542  19.298  1.00  0.00     0.101 C 
HETATM   33  C7  UNL     1      12.620  12.692  19.270  1.00  0.00     0.051 C 
BRANCH  32  34
HETATM   34  O2  UNL     1      12.064  10.548  20.232  1.00  0.00    -0.385 OA
HETATM   35  H14 UNL     1      12.341  10.995  21.049  1.00  0.00     0.210 HD
ENDBRANCH  32  34
BRANCH  32  36
HETATM   36  C8  UNL     1      10.258  12.056  19.844  1.00  0.00     0.204 C 
BRANCH  36  37
HETATM   37  O3  UNL     1      10.222  11.915  21.268  1.00  0.00    -0.398 OA
HETATM   38  H17 UNL     1      11.076  12.282  21.585  1.00  0.00     0.209 HD
ENDBRANCH  36  37
ENDBRANCH  32  36
ENDBRANCH  29  32
ENDBRANCH  28  29
ENDBRANCH  27  28
ENDBRANCH  25  27
ENDBRANCH   1  25
TORSDOF 9
ENDMDL
