MODEL 1
REMARK minimizedAffinity -7.47250891
REMARK CNNscore 0.871490836
REMARK CNNaffinity 6.96954536
REMARK  9 active torsions:
REMARK  status: ('A' for Active; 'I' for Inactive)
REMARK    1  A    between atoms: C3_3  and  C4_4 
REMARK    2  A    between atoms: C3_3  and  C27_30 
REMARK    3  A    between atoms: C4_4  and  C5_5 
REMARK    4  A    between atoms: C5_5  and  C6_6 
REMARK    5  A    between atoms: C6_6  and  C8_8 
REMARK    6  A    between atoms: C15_15  and  O1_16 
REMARK    7  A    between atoms: C18_19  and  C19_20 
REMARK    8  A    between atoms: C19_20  and  O2_21 
REMARK    9  A    between atoms: C22_24  and  O3_25 
ROOT
HETATM    1  C8  UNL     1       2.918  56.655  -8.672  1.00  0.00     0.001 C 
HETATM    2  C9  UNL     1       3.913  56.185  -9.761  1.00  0.00     0.006 C 
HETATM    3  C10 UNL     1       3.132  55.225 -10.679  1.00  0.00     0.010 C 
HETATM    4  C11 UNL     1       1.680  55.338 -10.211  1.00  0.00     0.026 C 
HETATM    5  C12 UNL     1       0.649  54.297 -10.588  1.00  0.00    -0.072 C 
HETATM    6  C13 UNL     1      -0.470  54.145  -9.831  1.00  0.00    -0.064 C 
HETATM    7  C14 UNL     1      -0.663  54.956  -8.541  1.00  0.00     0.068 C 
HETATM    8  C15 UNL     1       0.422  56.011  -8.211  1.00  0.00     0.131 C 
HETATM    9  C16 UNL     1       1.817  55.550  -8.679  1.00  0.00    -0.006 C 
HETATM   10  C17 UNL     1       2.269  54.273  -7.930  1.00  0.00     0.019 C 
HETATM   11  C18 UNL     1      -1.563  53.093 -10.189  1.00  0.00     0.009 C 
HETATM   12  C20 UNL     1      -3.017  53.610  -9.921  1.00  0.00     0.019 C 
HETATM   13  C21 UNL     1      -4.058  53.311 -11.013  1.00  0.00     0.033 C 
HETATM   14  C22 UNL     1      -3.904  51.960 -11.700  1.00  0.00     0.118 C 
HETATM   15  C23 UNL     1      -2.476  51.689 -12.187  1.00  0.00     0.037 C 
HETATM   16  C24 UNL     1      -1.466  52.749 -11.712  1.00  0.00     0.003 C 
HETATM   17  C25 UNL     1      -0.045  52.367 -12.121  1.00  0.00     0.010 C 
HETATM   18  C26 UNL     1       0.919  53.521 -11.856  1.00  0.00     0.035 C 
ENDROOT
BRANCH   1  19
HETATM   19  C6  UNL     1       3.540  57.094  -7.313  1.00  0.00    -0.013 C 
HETATM   20  C7  UNL     1       2.883  58.415  -6.870  1.00  0.00     0.010 C 
BRANCH  19  21
HETATM   21  C5  UNL     1       5.079  57.263  -7.309  1.00  0.00     0.009 C 
BRANCH  21  22
HETATM   22  C4  UNL     1       5.749  57.336  -5.923  1.00  0.00     0.034 C 
BRANCH  22  23
HETATM   23  C3  UNL     1       7.145  56.739  -5.845  1.00  0.00    -0.081 C 
HETATM   24  C2  UNL     1       7.522  55.671  -6.583  1.00  0.00    -0.028 C 
HETATM   25  C1  UNL     1       6.686  54.871  -7.532  1.00  0.00     0.036 C 
BRANCH  23  26
HETATM   26  C27 UNL     1       8.124  57.493  -4.939  1.00  0.00     0.006 C 
HETATM   27  C28 UNL     1       9.606  57.184  -5.187  1.00  0.00     0.014 C 
HETATM   28  C29 UNL     1       7.882  59.004  -5.031  1.00  0.00     0.014 C 
ENDBRANCH  23  26
ENDBRANCH  22  23
ENDBRANCH  21  22
ENDBRANCH  19  21
ENDBRANCH   1  19
BRANCH   8  29
HETATM   29  O1  UNL     1       0.385  56.318  -6.818  1.00  0.00    -0.394 OA
HETATM   30  H22 UNL     1       0.611  55.518  -6.318  1.00  0.00     0.210 HD
ENDBRANCH   8  29
BRANCH  11  31
HETATM   31  C19 UNL     1      -1.256  51.874  -9.253  1.00  0.00     0.178 C 
BRANCH  31  32
HETATM   32  O2  UNL     1       0.115  51.758  -8.891  1.00  0.00    -0.400 OA
HETATM   33  H28 UNL     1       0.172  51.006  -8.269  1.00  0.00     0.209 HD
ENDBRANCH  31  32
ENDBRANCH  11  31
BRANCH  14  34
HETATM   34  O3  UNL     1      -4.332  50.924 -10.820  1.00  0.00    -0.396 OA
HETATM   35  H34 UNL     1      -3.631  50.837 -10.138  1.00  0.00     0.210 HD
ENDBRANCH  14  34
TORSDOF 9
ENDMDL
