MODEL 1
REMARK minimizedAffinity -10.2093983
REMARK  9 active torsions:
REMARK  status: ('A' for Active; 'I' for Inactive)
REMARK    1  A    between atoms: C2_2  and  C3_3 
REMARK    2  A    between atoms: C2_2  and  C9_12 
REMARK    3  A    between atoms: C3_3  and  C4_4 
REMARK    4  A    between atoms: C4_4  and  C5_5 
REMARK    5  A    between atoms: C5_5  and  O1_6 
REMARK    6  A    between atoms: C5_5  and  C6_7 
REMARK    7  A    between atoms: C6_7  and  O2_9 
REMARK    8  A    between atoms: C6_7  and  C8_10 
REMARK    9  A    between atoms: C8_10  and  O3_11 
ROOT
HETATM    1  C9  UNL     1      -0.523  50.554 -21.621  1.00  0.00    -0.002 C 
HETATM    2  C10 UNL     1      -0.763  50.184 -20.132  1.00  0.00     0.007 C 
HETATM    3  C11 UNL     1      -2.092  49.406 -20.069  1.00  0.00     0.015 C 
HETATM    4  C12 UNL     1      -2.396  49.007 -21.527  1.00  0.00    -0.005 C 
HETATM    5  C13 UNL     1      -1.569  47.718 -21.828  1.00  0.00     0.021 C 
HETATM    6  C14 UNL     1      -3.815  48.654 -21.960  1.00  0.00    -0.000 C 
HETATM    7  C15 UNL     1      -4.235  48.874 -23.235  1.00  0.00    -0.060 C 
HETATM    8  C16 UNL     1      -3.308  49.540 -24.260  1.00  0.00     0.036 C 
HETATM    9  C17 UNL     1      -1.922  50.016 -23.778  1.00  0.00     0.015 C 
HETATM   10  C18 UNL     1      -1.917  50.317 -22.276  1.00  0.00    -0.028 C 
HETATM   11  C19 UNL     1      -2.848  51.538 -22.018  1.00  0.00     0.016 C 
HETATM   12  C20 UNL     1      -5.673  48.537 -23.717  1.00  0.00    -0.014 C 
HETATM   13  C21 UNL     1      -6.484  49.844 -23.557  1.00  0.00     0.020 C 
HETATM   14  C22 UNL     1      -5.692  48.093 -25.202  1.00  0.00     0.021 C 
HETATM   15  C23 UNL     1      -7.059  47.633 -25.682  1.00  0.00     0.080 C 
HETATM   16  C24 UNL     1      -7.576  46.497 -24.836  1.00  0.00     0.135 C 
HETATM   17  O4  UNL     1      -8.077  45.511 -25.379  1.00  0.00    -0.297 OA
HETATM   18  C25 UNL     1      -7.561  46.676 -23.310  1.00  0.00     0.018 C 
HETATM   19  C26 UNL     1      -7.670  45.266 -22.675  1.00  0.00     0.023 C 
HETATM   20  C27 UNL     1      -8.826  47.450 -22.910  1.00  0.00     0.023 C 
HETATM   21  C28 UNL     1      -6.206  47.333 -22.867  1.00  0.00     0.020 C 
HETATM   22  C29 UNL     1      -6.146  47.680 -21.377  1.00  0.00     0.090 C 
HETATM   23  C30 UNL     1      -4.735  48.020 -20.960  1.00  0.00     0.157 C 
HETATM   24  O5  UNL     1      -4.370  47.796 -19.807  1.00  0.00    -0.293 OA
ENDROOT
BRANCH   1  25
HETATM   25  C2  UNL     1       0.310  51.860 -21.812  1.00  0.00    -0.014 C 
HETATM   26  C1  UNL     1       0.367  52.827 -20.623  1.00  0.00     0.010 C 
BRANCH  25  27
HETATM   27  C3  UNL     1      -0.098  52.608 -23.100  1.00  0.00     0.007 C 
BRANCH  27  28
HETATM   28  C4  UNL     1       0.933  52.649 -24.239  1.00  0.00     0.035 C 
BRANCH  28  29
HETATM   29  C5  UNL     1       0.423  52.666 -25.694  1.00  0.00     0.154 C 
BRANCH  29  30
HETATM   30  O1  UNL     1       0.589  53.992 -26.205  1.00  0.00    -0.392 OA
HETATM   31  H10 UNL     1       0.410  53.963 -27.167  1.00  0.00     0.210 HD
ENDBRANCH  29  30
BRANCH  29  32
HETATM   32  C6  UNL     1       0.991  51.565 -26.654  1.00  0.00     0.101 C 
HETATM   33  C7  UNL     1       0.931  52.016 -28.117  1.00  0.00     0.051 C 
BRANCH  32  34
HETATM   34  O2  UNL     1       0.246  50.344 -26.514  1.00  0.00    -0.385 OA
HETATM   35  H14 UNL     1       0.496  49.744 -27.236  1.00  0.00     0.210 HD
ENDBRANCH  32  34
BRANCH  32  36
HETATM   36  C8  UNL     1       2.450  51.222 -26.279  1.00  0.00     0.204 C 
BRANCH  36  37
HETATM   37  O3  UNL     1       3.311  51.469 -27.396  1.00  0.00    -0.398 OA
HETATM   38  H17 UNL     1       3.062  52.361 -27.721  1.00  0.00     0.209 HD
ENDBRANCH  36  37
ENDBRANCH  32  36
ENDBRANCH  29  32
ENDBRANCH  28  29
ENDBRANCH  27  28
ENDBRANCH  25  27
ENDBRANCH   1  25
TORSDOF 9
ENDMDL
