MODEL 1
REMARK minimizedAffinity -6.56545973
REMARK CNNscore 0.711906195
REMARK CNNaffinity 6.26704073
REMARK  8 active torsions:
REMARK  status: ('A' for Active; 'I' for Inactive)
REMARK    1  A    between atoms: C2_2  and  C30_33 
REMARK    2  A    between atoms: C3_3  and  C4_4 
REMARK    3  A    between atoms: C4_4  and  C5_5 
REMARK    4  A    between atoms: C5_5  and  C6_6 
REMARK    5  A    between atoms: C6_6  and  C8_8 
REMARK    6  A    between atoms: C21_22  and  O2_23 
REMARK    7  A    between atoms: C23_25  and  O3_26 
REMARK    8  A    between atoms: C30_33  and  O4_34 
ROOT
HETATM    1  C8  UNL     1     -16.880   2.932  13.773  1.00  0.00    -0.001 C 
HETATM    2  C9  UNL     1     -17.692   2.552  12.504  1.00  0.00     0.007 C 
HETATM    3  C10 UNL     1     -17.964   1.037  12.582  1.00  0.00     0.015 C 
HETATM    4  C11 UNL     1     -17.028   0.524  13.693  1.00  0.00    -0.012 C 
HETATM    5  C12 UNL     1     -15.623   0.290  13.049  1.00  0.00     0.021 C 
HETATM    6  C13 UNL     1     -17.357  -0.782  14.401  1.00  0.00    -0.060 C 
HETATM    7  C14 UNL     1     -16.904  -1.022  15.657  1.00  0.00     0.002 C 
HETATM    8  C15 UNL     1     -16.094   0.063  16.355  1.00  0.00     0.157 C 
HETATM    9  O1  UNL     1     -15.444  -0.201  17.374  1.00  0.00    -0.293 OA
HETATM   10  C16 UNL     1     -16.052   1.484  15.795  1.00  0.00     0.094 C 
HETATM   11  C17 UNL     1     -17.109   1.716  14.718  1.00  0.00    -0.022 C 
HETATM   12  C18 UNL     1     -18.495   1.819  15.421  1.00  0.00     0.017 C 
HETATM   13  C19 UNL     1     -17.102  -2.373  16.391  1.00  0.00     0.017 C 
HETATM   14  C20 UNL     1     -15.748  -3.117  16.216  1.00  0.00     0.023 C 
HETATM   15  C21 UNL     1     -17.458  -2.138  17.909  1.00  0.00     0.134 C 
HETATM   16  C22 UNL     1     -18.565  -3.037  18.476  1.00  0.00     0.065 C 
HETATM   17  C23 UNL     1     -18.477  -4.472  17.960  1.00  0.00     0.128 C 
HETATM   18  C24 UNL     1     -18.635  -4.547  16.406  1.00  0.00    -0.017 C 
HETATM   19  C25 UNL     1     -20.133  -4.855  16.118  1.00  0.00     0.018 C 
HETATM   20  C26 UNL     1     -17.838  -5.728  15.812  1.00  0.00     0.018 C 
HETATM   21  C27 UNL     1     -18.298  -3.155  15.733  1.00  0.00     0.011 C 
HETATM   22  C28 UNL     1     -18.155  -3.210  14.200  1.00  0.00     0.011 C 
HETATM   23  C29 UNL     1     -18.128  -1.805  13.600  1.00  0.00     0.036 C 
ENDROOT
BRANCH   1  24
HETATM   24  C6  UNL     1     -17.065   4.415  14.210  1.00  0.00    -0.014 C 
HETATM   25  C7  UNL     1     -17.726   5.242  13.100  1.00  0.00     0.010 C 
BRANCH  24  26
HETATM   26  C5  UNL     1     -15.827   5.149  14.770  1.00  0.00     0.008 C 
BRANCH  26  27
HETATM   27  C4  UNL     1     -15.406   6.343  13.902  1.00  0.00     0.028 C 
BRANCH  27  28
HETATM   28  C3  UNL     1     -13.917   6.354  13.693  1.00  0.00    -0.022 C 
HETATM   29  C2  UNL     1     -13.007   7.149  14.291  1.00  0.00    -0.064 C 
HETATM   30  C1  UNL     1     -13.320   8.177  15.346  1.00  0.00     0.045 C 
BRANCH  29  31
HETATM   31  C30 UNL     1     -11.545   7.035  13.946  1.00  0.00     0.197 C 
BRANCH  31  32
HETATM   32  O4  UNL     1     -10.848   6.492  15.058  1.00  0.00    -0.397 OA
HETATM   33  H48 UNL     1      -9.903   6.588  14.867  1.00  0.00     0.209 HD
ENDBRANCH  31  32
ENDBRANCH  29  31
ENDBRANCH  27  28
ENDBRANCH  26  27
ENDBRANCH  24  26
ENDBRANCH   1  24
BRANCH  15  34
HETATM   34  O2  UNL     1     -16.303  -2.339  18.735  1.00  0.00    -0.394 OA
HETATM   35  H30 UNL     1     -15.768  -1.514  18.652  1.00  0.00     0.210 HD
ENDBRANCH  15  34
BRANCH  17  36
HETATM   36  O3  UNL     1     -17.274  -5.080  18.424  1.00  0.00    -0.395 OA
HETATM   37  H34 UNL     1     -16.637  -4.375  18.649  1.00  0.00     0.210 HD
ENDBRANCH  17  36
TORSDOF 8
ENDMDL
