MODEL 1
REMARK minimizedAffinity -9.58116913
REMARK CNNscore 0.672157168
REMARK CNNaffinity 7.82593393
REMARK  12 active torsions:
REMARK  status: ('A' for Active; 'I' for Inactive)
REMARK    1  A    between atoms: C19_21  and  O3_22 
REMARK    2  A    between atoms: C19_21  and  C20_23 
REMARK    3  A    between atoms: C20_23  and  C21_25 
REMARK    4  A    between atoms: C21_25  and  O5_26 
REMARK    5  A    between atoms: O5_26  and  C22_27 
REMARK    6  A    between atoms: C22_27  and  C23_29 
REMARK    7  A    between atoms: C23_29  and  C24_30 
REMARK    8  A    between atoms: C24_30  and  C25_31 
REMARK       I    between atoms: C25_31  and  N1_33 
REMARK    9  A    between atoms: N1_33  and  C26_34 
REMARK   10  A    between atoms: C26_34  and  C27_35 
REMARK   11  A    between atoms: C27_35  and  C28_36 
REMARK   12  A    between atoms: C31_39  and  O8_40 
ROOT
HETATM    1  C1  UNL     1       0.196   7.340   9.949  1.00  0.00     0.021 C 
HETATM    2  C2  UNL     1       1.039   6.863  11.154  1.00  0.00    -0.009 C 
HETATM    3  C3  UNL     1       2.393   7.638  11.188  1.00  0.00     0.022 C 
HETATM    4  C4  UNL     1       3.372   7.214  10.103  1.00  0.00     0.084 C 
HETATM    5  C5  UNL     1       3.624   5.733  10.176  1.00  0.00     0.149 C 
HETATM    6  O1  UNL     1       4.699   5.229   9.863  1.00  0.00    -0.293 OA
HETATM    7  C6  UNL     1       2.493   4.858  10.561  1.00  0.00     0.053 C 
HETATM    8  C7  UNL     1       1.311   5.359  10.962  1.00  0.00    -0.067 C 
HETATM    9  C8  UNL     1       0.156   4.418  11.215  1.00  0.00     0.035 C 
HETATM   10  C9  UNL     1      -0.496   4.670  12.569  1.00  0.00     0.010 C 
HETATM   11  C10 UNL     1      -0.928   6.135  12.712  1.00  0.00     0.003 C 
HETATM   12  C11 UNL     1       0.302   7.075  12.526  1.00  0.00     0.072 C 
HETATM   13  C12 UNL     1      -0.095   8.530  12.851  1.00  0.00     0.133 C 
HETATM   14  O2  UNL     1       0.184   9.487  12.132  1.00  0.00    -0.297 OA
HETATM   15  C13 UNL     1      -0.807   8.764  14.177  1.00  0.00     0.091 C 
HETATM   16  C14 UNL     1      -2.041   7.858  14.266  1.00  0.00     0.005 C 
HETATM   17  C15 UNL     1      -3.072   8.303  13.195  1.00  0.00     0.019 C 
HETATM   18  C16 UNL     1      -1.559   6.396  14.087  1.00  0.00     0.002 C 
HETATM   19  C17 UNL     1      -2.772   5.566  14.497  1.00  0.00     0.009 C 
HETATM   20  C18 UNL     1      -3.459   6.395  15.603  1.00  0.00     0.047 C 
HETATM   21  C19 UNL     1      -2.709   7.744  15.666  1.00  0.00     0.128 C 
ENDROOT
BRANCH  21  22
HETATM   22  O3  UNL     1      -1.683   7.599  16.668  1.00  0.00    -0.381 OA
HETATM   23  H25 UNL     1      -1.437   8.504  16.954  1.00  0.00     0.211 HD
ENDBRANCH  21  22
BRANCH  21  24
HETATM   24  C20 UNL     1      -3.520   8.985  16.081  1.00  0.00     0.185 C 
HETATM   25  O4  UNL     1      -3.098   9.684  17.012  1.00  0.00    -0.292 OA
BRANCH  24  26
HETATM   26  C21 UNL     1      -4.804   9.328  15.329  1.00  0.00     0.260 C 
BRANCH  26  27
HETATM   27  O5  UNL     1      -5.930   8.594  15.816  1.00  0.00    -0.314 OA
BRANCH  27  28
HETATM   28  C22 UNL     1      -6.729   8.087  14.834  1.00  0.00     0.259 C 
HETATM   29  O6  UNL     1      -6.323   7.482  13.852  1.00  0.00    -0.265 OA
BRANCH  28  30
HETATM   30  C23 UNL     1      -8.169   8.406  15.127  1.00  0.00     0.120 C 
BRANCH  30  31
HETATM   31  C24 UNL     1      -8.940   7.138  15.473  1.00  0.00     0.112 C 
BRANCH  31  32
HETATM   32  C25 UNL     1      -9.022   6.190  14.299  1.00  0.00     0.218 C 
HETATM   33  O7  UNL     1      -9.730   6.383  13.318  1.00  0.00    -0.274 OA
HETATM   34  N1  UNL     1      -8.203   5.093  14.445  1.00  0.00    -0.361 N 
HETATM   35  H32 UNL     1      -7.601   5.028  15.255  1.00  0.00     0.162 HD
BRANCH  34  36
HETATM   36  C26 UNL     1      -8.089   4.077  13.416  1.00  0.00     0.127 C 
BRANCH  36  37
HETATM   37  C27 UNL     1      -7.160   4.509  12.279  1.00  0.00     0.058 C 
BRANCH  37  38
HETATM   38  C28 UNL     1      -6.057   3.505  12.049  1.00  0.00    -0.057 A 
HETATM   39  C29 UNL     1      -6.359   2.199  11.636  1.00  0.00     0.010 A 
HETATM   40  C30 UNL     1      -5.336   1.277  11.395  1.00  0.00     0.037 A 
HETATM   41  C31 UNL     1      -4.011   1.664  11.567  1.00  0.00     0.065 A 
HETATM   42  C32 UNL     1      -3.694   2.954  11.973  1.00  0.00     0.037 A 
HETATM   43  C33 UNL     1      -4.715   3.876  12.213  1.00  0.00     0.010 A 
BRANCH  41  44
HETATM   44  O8  UNL     1      -2.983   0.798  11.340  1.00  0.00    -0.361 OA
HETATM   45  H39 UNL     1      -3.353  -0.055  11.061  1.00  0.00     0.217 HD
ENDBRANCH  41  44
ENDBRANCH  37  38
ENDBRANCH  36  37
ENDBRANCH  34  36
ENDBRANCH  31  32
ENDBRANCH  30  31
ENDBRANCH  28  30
ENDBRANCH  27  28
ENDBRANCH  26  27
ENDBRANCH  24  26
ENDBRANCH  21  24
TORSDOF 12
ENDMDL
