MODEL 1
REMARK minimizedAffinity -8.35317612
REMARK CNNscore 0.58730191
REMARK CNNaffinity 6.70195389
REMARK  12 active torsions:
REMARK  status: ('A' for Active; 'I' for Inactive)
REMARK    1  A    between atoms: O1_2  and  C2_3 
REMARK    2  A    between atoms: C3_5  and  C4_6 
REMARK    3  A    between atoms: C4_6  and  O3_7 
REMARK    4  A    between atoms: C4_6  and  C5_8 
REMARK    5  A    between atoms: C5_8  and  O4_10 
REMARK    6  A    between atoms: C5_8  and  C7_11 
REMARK    7  A    between atoms: C7_11  and  O5_12 
REMARK    8  A    between atoms: C9_14  and  C10_15 
REMARK    9  A    between atoms: C23_28  and  O6_29 
REMARK   10  A    between atoms: O6_29  and  C24_30 
REMARK   11  A    between atoms: C24_30  and  C25_32 
REMARK   12  A    between atoms: C34_41  and  O8_42 
ROOT
HETATM    1  C10 UNL     1      -8.135  46.637 -29.231  1.00  0.00     0.004 C 
HETATM    2  C11 UNL     1      -8.851  47.594 -30.210  1.00  0.00     0.007 C 
HETATM    3  C12 UNL     1     -10.345  47.478 -29.863  1.00  0.00     0.011 C 
HETATM    4  C13 UNL     1     -10.392  47.113 -28.383  1.00  0.00    -0.021 A 
HETATM    5  C14 UNL     1      -9.549  47.983 -27.468  1.00  0.00     0.022 A 
HETATM    6  C15 UNL     1      -9.013  46.657 -27.977  1.00  0.00    -0.027 A 
HETATM    7  C16 UNL     1      -8.809  45.570 -26.950  1.00  0.00     0.011 C 
HETATM    8  C17 UNL     1     -10.078  44.807 -26.551  1.00  0.00     0.007 C 
HETATM    9  C18 UNL     1     -11.312  45.727 -26.421  1.00  0.00     0.005 C 
HETATM   10  C19 UNL     1     -12.543  45.123 -25.607  1.00  0.00    -0.035 C 
HETATM   11  C20 UNL     1     -13.028  43.779 -26.199  1.00  0.00     0.016 C 
HETATM   12  C21 UNL     1     -12.089  44.848 -24.138  1.00  0.00     0.012 C 
HETATM   13  C22 UNL     1     -13.236  44.541 -23.176  1.00  0.00     0.034 C 
HETATM   14  C23 UNL     1     -14.310  45.628 -23.170  1.00  0.00     0.140 C 
HETATM   15  C29 UNL     1     -14.871  45.951 -24.592  1.00  0.00    -0.016 C 
HETATM   16  C30 UNL     1     -15.745  47.230 -24.453  1.00  0.00     0.018 C 
HETATM   17  C31 UNL     1     -15.820  44.844 -25.095  1.00  0.00     0.018 C 
HETATM   18  C32 UNL     1     -13.658  46.237 -25.552  1.00  0.00     0.007 C 
HETATM   19  C33 UNL     1     -14.047  46.722 -26.970  1.00  0.00     0.038 C 
HETATM   20  C34 UNL     1     -12.847  47.342 -27.702  1.00  0.00     0.128 C 
HETATM   21  C35 UNL     1     -11.649  46.358 -27.834  1.00  0.00    -0.005 C 
HETATM   22  C36 UNL     1     -12.038  45.268 -28.875  1.00  0.00     0.019 C 
ENDROOT
BRANCH   1  23
HETATM   23  C9  UNL     1      -6.655  46.915 -28.927  1.00  0.00     0.048 C 
HETATM   24  C2  UNL     1      -5.722  47.096 -30.125  1.00  0.00     0.264 C 
HETATM   25  O2  UNL     1      -4.517  47.671 -29.588  1.00  0.00    -0.353 OA
HETATM   26  C3  UNL     1      -4.809  48.231 -28.295  1.00  0.00     0.157 C 
HETATM   27  C8  UNL     1      -6.324  48.156 -28.119  1.00  0.00     0.044 C 
BRANCH  24  28
HETATM   28  O1  UNL     1      -6.283  47.969 -31.095  1.00  0.00    -0.366 OA
HETATM   29  C1  UNL     1      -5.348  48.315 -32.107  1.00  0.00     0.204 C 
ENDBRANCH  24  28
BRANCH  26  30
HETATM   30  C4  UNL     1      -4.225  49.645 -28.117  1.00  0.00     0.183 C 
BRANCH  30  31
HETATM   31  O3  UNL     1      -3.650  50.115 -29.349  1.00  0.00    -0.390 OA
HETATM   32  H7  UNL     1      -3.158  50.933 -29.118  1.00  0.00     0.210 HD
ENDBRANCH  30  31
BRANCH  30  33
HETATM   33  C5  UNL     1      -3.172  49.813 -26.983  1.00  0.00     0.103 C 
HETATM   34  C6  UNL     1      -2.687  48.466 -26.437  1.00  0.00     0.051 C 
BRANCH  33  35
HETATM   35  O4  UNL     1      -3.861  50.496 -25.903  1.00  0.00    -0.385 OA
HETATM   36  H11 UNL     1      -4.520  49.885 -25.527  1.00  0.00     0.210 HD
ENDBRANCH  33  35
BRANCH  33  37
HETATM   37  C7  UNL     1      -1.949  50.691 -27.356  1.00  0.00     0.204 C 
BRANCH  37  38
HETATM   38  O5  UNL     1      -0.865  50.580 -26.433  1.00  0.00    -0.398 OA
HETATM   39  H14 UNL     1      -1.248  50.711 -25.539  1.00  0.00     0.209 HD
ENDBRANCH  37  38
ENDBRANCH  33  37
ENDBRANCH  30  33
ENDBRANCH  26  30
ENDBRANCH   1  23
BRANCH  20  40
HETATM   40  O8  UNL     1     -12.466  48.514 -26.973  1.00  0.00    -0.395 OA
HETATM   41  H55 UNL     1     -13.142  49.192 -27.145  1.00  0.00     0.210 HD
ENDBRANCH  20  40
BRANCH  14  42
HETATM   42  O6  UNL     1     -15.398  45.204 -22.323  1.00  0.00    -0.312 OA
BRANCH  42  43
HETATM   43  C24 UNL     1     -15.348  45.587 -21.027  1.00  0.00     0.283 C 
HETATM   44  O7  UNL     1     -14.358  45.617 -20.313  1.00  0.00    -0.260 OA
BRANCH  43  45
HETATM   45  C25 UNL     1     -16.669  46.068 -20.570  1.00  0.00     0.084 C 
HETATM   46  C26 UNL     1     -16.932  47.032 -19.665  1.00  0.00    -0.082 C 
HETATM   47  C27 UNL     1     -15.904  47.882 -18.968  1.00  0.00     0.043 C 
HETATM   48  C28 UNL     1     -18.355  47.360 -19.299  1.00  0.00     0.043 C 
ENDBRANCH  43  45
ENDBRANCH  42  43
ENDBRANCH  14  42
TORSDOF 12
ENDMDL
