MODEL 1
REMARK minimizedAffinity -10.832468
REMARK CNNscore 0.617205799
REMARK CNNaffinity 6.88532639
REMARK  4 active torsions:
REMARK  status: ('A' for Active; 'I' for Inactive)
REMARK    1  A    between atoms: C4_4  and  O1_5 
REMARK    2  A    between atoms: C5_6  and  O2_7 
REMARK    3  A    between atoms: C8_11  and  C9_12 
REMARK    4  A    between atoms: C19_23  and  C20_24 
ROOT
HETATM    1  C1  UNL     1       3.700   8.083   9.479  1.00  0.00     0.040 C 
HETATM    2  C2  UNL     1       4.824   8.779  10.243  1.00  0.00     0.123 C 
HETATM    3  C3  UNL     1       5.895   7.817  10.753  1.00  0.00     0.069 C 
HETATM    4  C4  UNL     1       5.417   6.944  11.910  1.00  0.00     0.188 C 
HETATM    5  C5  UNL     1       4.465   7.691  12.882  1.00  0.00     0.240 C 
HETATM    6  O3  UNL     1       3.127   7.169  12.698  1.00  0.00    -0.341 OA
HETATM    7  C6  UNL     1       2.177   7.880  13.506  1.00  0.00     0.156 C 
HETATM    8  C7  UNL     1       0.781   7.347  13.191  1.00  0.00     0.056 C 
HETATM    9  C8  UNL     1      -0.361   8.040  13.993  1.00  0.00     0.043 C 
HETATM   10  C10 UNL     1      -0.144   9.550  14.088  1.00  0.00    -0.065 C 
HETATM   11  C11 UNL     1      -1.186  10.390  14.221  1.00  0.00    -0.022 C 
HETATM   12  C12 UNL     1      -2.586   9.905  14.410  1.00  0.00     0.035 C 
HETATM   13  C13 UNL     1      -2.941   8.625  13.642  1.00  0.00     0.030 C 
HETATM   14  C14 UNL     1      -1.736   7.683  13.300  1.00  0.00     0.012 C 
HETATM   15  C15 UNL     1      -1.994   6.147  13.279  1.00  0.00     0.007 C 
HETATM   16  C16 UNL     1      -3.453   5.722  13.186  1.00  0.00     0.016 C 
HETATM   17  C17 UNL     1      -4.232   6.349  14.348  1.00  0.00     0.023 C 
HETATM   18  C18 UNL     1      -3.904   5.672  15.680  1.00  0.00     0.022 C 
HETATM   19  C19 UNL     1      -5.745   6.749  14.108  1.00  0.00     0.098 C 
HETATM   20  C24 UNL     1      -6.222   7.629  15.268  1.00  0.00     0.047 C 
HETATM   21  C25 UNL     1      -4.989   8.539  15.362  1.00  0.00     0.042 C 
HETATM   22  C26 UNL     1      -4.163   7.920  14.226  1.00  0.00     0.077 C 
HETATM   23  O7  UNL     1      -5.207   7.739  13.129  1.00  0.00    -0.362 OA
HETATM   24  C27 UNL     1       1.264  10.097  14.166  1.00  0.00     0.069 C 
HETATM   25  C28 UNL     1       2.239   9.388  13.235  1.00  0.00     0.158 C 
HETATM   26  O8  UNL     1       3.570   9.879  13.484  1.00  0.00    -0.347 OA
HETATM   27  C29 UNL     1       4.511   9.225  12.605  1.00  0.00     0.325 C 
HETATM   28  O9  UNL     1       4.243   9.600  11.257  1.00  0.00    -0.351 OA
ENDROOT
BRANCH  19  29
HETATM   29  C20 UNL     1      -6.683   5.770  13.577  1.00  0.00    -0.015 A 
HETATM   30  C21 UNL     1      -6.616   4.457  13.764  1.00  0.00     0.090 A 
HETATM   31  C22 UNL     1      -7.755   3.888  13.047  1.00  0.00     0.283 A 
HETATM   32  O5  UNL     1      -8.008   2.699  12.987  1.00  0.00    -0.260 OA
HETATM   33  O6  UNL     1      -8.474   4.889  12.471  1.00  0.00    -0.314 OA
HETATM   34  C23 UNL     1      -7.853   6.143  12.761  1.00  0.00     0.216 A 
ENDBRANCH  19  29
BRANCH   9  35
HETATM   35  C9  UNL     1      -0.358   7.496  15.434  1.00  0.00     0.245 C 
HETATM   36  O4  UNL     1       0.532   7.695  16.258  1.00  0.00    -0.306 OA
ENDBRANCH   9  35
BRANCH   5  37
HETATM   37  O2  UNL     1       4.875   7.391  14.222  1.00  0.00    -0.360 OA
HETATM   38  H9  UNL     1       4.674   8.176  14.761  1.00  0.00     0.213 HD
ENDBRANCH   5  37
BRANCH   4  39
HETATM   39  O1  UNL     1       4.817   5.747  11.385  1.00  0.00    -0.390 OA
HETATM   40  H8  UNL     1       3.915   5.715  11.763  1.00  0.00     0.210 HD
ENDBRANCH   4  39
TORSDOF 4
ENDMDL
