MODEL 1
REMARK minimizedAffinity -8.61850548
REMARK  6 active torsions:
REMARK  status: ('A' for Active; 'I' for Inactive)
REMARK    1  A    between atoms: C2_2  and  C3_3 
REMARK    2  A    between atoms: C2_2  and  C9_10 
REMARK    3  A    between atoms: C3_3  and  C4_4 
REMARK    4  A    between atoms: C4_4  and  C5_5 
REMARK    5  A    between atoms: C17_18  and  C18_19 
REMARK    6  A    between atoms: C18_19  and  O2_22 
ROOT
HETATM    1  C9  UNL     1      -1.316  51.532 -22.228  1.00  0.00    -0.002 C 
HETATM    2  C10 UNL     1      -2.644  52.113 -22.812  1.00  0.00     0.006 C 
HETATM    3  C11 UNL     1      -3.782  51.150 -22.405  1.00  0.00     0.011 C 
HETATM    4  C12 UNL     1      -3.057  49.872 -21.950  1.00  0.00    -0.032 C 
HETATM    5  C13 UNL     1      -2.672  49.118 -23.268  1.00  0.00     0.016 C 
HETATM    6  C14 UNL     1      -3.856  48.946 -20.985  1.00  0.00     0.003 C 
HETATM    7  C15 UNL     1      -5.216  48.449 -21.506  1.00  0.00     0.009 C 
HETATM    8  C16 UNL     1      -5.718  47.189 -20.796  1.00  0.00     0.042 C 
HETATM    9  C17 UNL     1      -5.360  47.028 -19.284  1.00  0.00     0.095 C 
HETATM   10  O3  UNL     1      -5.661  45.634 -19.052  1.00  0.00    -0.377 OA
HETATM   11  C21 UNL     1      -5.274  45.029 -17.830  1.00  0.00     0.169 C 
HETATM   12  C22 UNL     1      -3.952  45.513 -17.263  1.00  0.00     0.027 C 
HETATM   13  C23 UNL     1      -3.086  46.139 -18.335  1.00  0.00     0.010 C 
HETATM   14  C24 UNL     1      -3.811  47.292 -19.070  1.00  0.00     0.032 C 
HETATM   15  C25 UNL     1      -3.002  47.786 -20.358  1.00  0.00    -0.033 C 
HETATM   16  C26 UNL     1      -2.764  46.622 -21.366  1.00  0.00     0.016 C 
HETATM   17  C27 UNL     1      -1.592  48.305 -19.887  1.00  0.00     0.011 C 
HETATM   18  C28 UNL     1      -0.885  49.333 -20.797  1.00  0.00     0.011 C 
HETATM   19  C29 UNL     1      -1.821  50.495 -21.177  1.00  0.00    -0.032 C 
HETATM   20  C30 UNL     1      -2.191  51.251 -19.866  1.00  0.00     0.016 C 
ENDROOT
BRANCH   1  21
HETATM   21  C2  UNL     1      -0.239  52.617 -21.923  1.00  0.00    -0.014 C 
HETATM   22  C1  UNL     1       0.688  52.369 -20.727  1.00  0.00     0.010 C 
BRANCH  21  23
HETATM   23  C3  UNL     1       0.578  52.973 -23.185  1.00  0.00     0.007 C 
BRANCH  23  24
HETATM   24  C4  UNL     1       0.262  52.081 -24.393  1.00  0.00     0.035 C 
BRANCH  24  25
HETATM   25  C5  UNL     1       1.261  52.293 -25.491  1.00  0.00     0.156 A 
HETATM   26  O1  UNL     1       0.886  53.281 -26.461  1.00  0.00    -0.370 OA
HETATM   27  C6  UNL     1       1.003  51.934 -26.946  1.00  0.00     0.080 A 
HETATM   28  C7  UNL     1       2.179  51.721 -27.849  1.00  0.00     0.048 C 
HETATM   29  C8  UNL     1      -0.293  51.329 -27.386  1.00  0.00     0.048 C 
ENDBRANCH  24  25
ENDBRANCH  23  24
ENDBRANCH  21  23
ENDBRANCH   1  21
BRANCH   9  30
HETATM   30  C18 UNL     1      -6.322  47.983 -18.408  1.00  0.00     0.082 C 
HETATM   31  C19 UNL     1      -7.139  48.947 -19.295  1.00  0.00     0.049 C 
HETATM   32  C20 UNL     1      -7.323  47.276 -17.479  1.00  0.00     0.049 C 
BRANCH  30  33
HETATM   33  O2  UNL     1      -5.524  48.792 -17.526  1.00  0.00    -0.388 OA
HETATM   34  H35 UNL     1      -6.090  49.491 -17.155  1.00  0.00     0.210 HD
ENDBRANCH  30  33
ENDBRANCH   9  30
TORSDOF 6
ENDMDL
