MODEL 1
REMARK minimizedAffinity -10.1328821
REMARK  7 active torsions:
REMARK  status: ('A' for Active; 'I' for Inactive)
REMARK    1  A    between atoms: C2_2  and  C4_4 
REMARK    2  A    between atoms: C4_4  and  C6_6 
REMARK    3  A    between atoms: C7_7  and  C8_8 
REMARK    4  A    between atoms: C8_8  and  O1_10 
REMARK    5  A    between atoms: C8_8  and  C10_11 
REMARK    6  A    between atoms: C15_16  and  O2_17 
REMARK    7  A    between atoms: C26_29  and  O4_30 
ROOT
HETATM    1  C10 UNL     1      -0.529  51.692 -25.149  1.00  0.00     0.034 C 
HETATM    2  C11 UNL     1       0.147  53.100 -25.171  1.00  0.00     0.009 C 
HETATM    3  C12 UNL     1       0.381  53.502 -23.708  1.00  0.00     0.006 C 
HETATM    4  C13 UNL     1       0.023  52.250 -22.917  1.00  0.00     0.003 C 
HETATM    5  C14 UNL     1      -0.243  52.402 -21.410  1.00  0.00     0.024 C 
HETATM    6  C15 UNL     1       0.915  53.109 -20.679  1.00  0.00     0.123 C 
HETATM    7  C16 UNL     1       0.711  53.139 -19.165  1.00  0.00     0.038 C 
HETATM    8  C17 UNL     1       0.425  51.749 -18.574  1.00  0.00     0.003 C 
HETATM    9  C18 UNL     1       0.254  51.855 -17.050  1.00  0.00     0.083 C 
HETATM   10  C19 UNL     1      -0.291  50.575 -16.459  1.00  0.00     0.127 C 
HETATM   11  O3  UNL     1      -0.690  50.529 -15.297  1.00  0.00    -0.298 OA
HETATM   12  C20 UNL     1      -0.243  49.343 -17.325  1.00  0.00     0.079 C 
HETATM   13  C21 UNL     1      -0.865  49.569 -18.704  1.00  0.00     0.017 C 
HETATM   14  C22 UNL     1      -0.777  51.027 -19.260  1.00  0.00    -0.035 C 
HETATM   15  C23 UNL     1      -2.115  51.746 -18.935  1.00  0.00     0.016 C 
HETATM   16  C24 UNL     1      -0.528  50.988 -20.816  1.00  0.00     0.003 C 
HETATM   17  C25 UNL     1      -1.635  50.253 -21.614  1.00  0.00     0.038 C 
HETATM   18  C26 UNL     1      -1.382  50.213 -23.135  1.00  0.00     0.127 C 
HETATM   19  C27 UNL     1      -1.158  51.626 -23.716  1.00  0.00    -0.007 C 
HETATM   20  C28 UNL     1      -2.456  52.465 -23.612  1.00  0.00     0.019 C 
ENDROOT
BRANCH   1  21
HETATM   21  C8  UNL     1      -1.303  51.352 -26.464  1.00  0.00     0.076 C 
HETATM   22  C9  UNL     1      -2.131  52.499 -27.056  1.00  0.00     0.051 C 
BRANCH  21  23
HETATM   23  C7  UNL     1      -2.089  50.056 -26.347  1.00  0.00     0.007 C 
HETATM   24  C6  UNL     1      -3.351  49.845 -26.762  1.00  0.00    -0.023 C 
BRANCH  24  25
HETATM   25  C4  UNL     1      -4.076  48.522 -26.635  1.00  0.00     0.007 C 
HETATM   26  C5  UNL     1      -4.436  48.010 -28.033  1.00  0.00     0.014 C 
BRANCH  25  27
HETATM   27  C2  UNL     1      -5.317  48.573 -25.700  1.00  0.00    -0.015 C 
HETATM   28  C1  UNL     1      -6.468  47.721 -26.245  1.00  0.00     0.010 C 
HETATM   29  C3  UNL     1      -5.032  48.181 -24.246  1.00  0.00     0.010 C 
ENDBRANCH  25  27
ENDBRANCH  24  25
ENDBRANCH  21  23
BRANCH  21  30
HETATM   30  O1  UNL     1      -0.283  51.084 -27.451  1.00  0.00    -0.386 OA
HETATM   31  H17 UNL     1      -0.040  50.145 -27.377  1.00  0.00     0.211 HD
ENDBRANCH  21  30
ENDBRANCH   1  21
BRANCH  18  32
HETATM   32  O4  UNL     1      -2.501  49.592 -23.751  1.00  0.00    -0.395 OA
HETATM   33  H43 UNL     1      -2.599  48.700 -23.377  1.00  0.00     0.210 HD
ENDBRANCH  18  32
BRANCH   6  34
HETATM   34  O2  UNL     1       2.172  52.510 -20.979  1.00  0.00    -0.395 OA
HETATM   35  H26 UNL     1       2.160  51.580 -20.704  1.00  0.00     0.210 HD
ENDBRANCH   6  34
TORSDOF 7
ENDMDL
