MODEL 1
REMARK minimizedAffinity -8.57310009
REMARK CNNscore 0.742081761
REMARK CNNaffinity 7.23273849
REMARK  19 active torsions:
REMARK  status: ('A' for Active; 'I' for Inactive)
REMARK    1  A    between atoms: C19_20  and  O2_21 
REMARK    2  A    between atoms: C19_20  and  C20_22 
REMARK    3  A    between atoms: C20_22  and  C21_24 
REMARK    4  A    between atoms: C21_24  and  O4_25 
REMARK    5  A    between atoms: O4_25  and  C22_26 
REMARK    6  A    between atoms: C22_26  and  C23_28 
REMARK    7  A    between atoms: C23_28  and  C24_29 
REMARK    8  A    between atoms: C24_29  and  C25_30 
REMARK       I    between atoms: C25_30  and  N1_32 
REMARK    9  A    between atoms: N1_32  and  C26_33 
REMARK   10  A    between atoms: C26_33  and  C27_34 
REMARK   11  A    between atoms: C27_34  and  C28_35 
REMARK   12  A    between atoms: C28_35  and  C29_36 
REMARK   13  A    between atoms: C29_36  and  C30_37 
REMARK   14  A    between atoms: C30_37  and  C31_38 
REMARK       I    between atoms: C31_38  and  N2_40 
REMARK   15  A    between atoms: N2_40  and  C32_41 
REMARK   16  A    between atoms: C32_41  and  C33_42 
REMARK   17  A    between atoms: C33_42  and  C34_43 
REMARK   18  A    between atoms: C37_46  and  O8_47 
REMARK   19  A    between atoms: C38_48  and  O9_49 
ROOT
HETATM    1  C22 UNL     1      -4.040   3.837  11.667  1.00  0.00     0.259 C 
HETATM    2  O5  UNL     1      -3.838   3.685  10.470  1.00  0.00    -0.265 OA
ENDROOT
BRANCH   1   3
HETATM    3  O4  UNL     1      -3.202   4.474  12.524  1.00  0.00    -0.314 OA
BRANCH   3   4
HETATM    4  C21 UNL     1      -3.703   5.565  13.284  1.00  0.00     0.260 C 
BRANCH   4   5
HETATM    5  C20 UNL     1      -3.186   7.020  13.269  1.00  0.00     0.185 C 
HETATM    6  O3  UNL     1      -3.947   7.923  12.900  1.00  0.00    -0.292 OA
BRANCH   5   7
HETATM    7  C19 UNL     1      -1.765   7.326  13.835  1.00  0.00     0.128 C 
HETATM    8  C14 UNL     1      -0.781   7.982  12.807  1.00  0.00    -0.002 C 
HETATM    9  C13 UNL     1       0.471   8.576  13.525  1.00  0.00     0.013 C 
HETATM   10  C15 UNL     1      -1.454   9.099  11.990  1.00  0.00     0.019 C 
HETATM   11  C16 UNL     1      -0.386   6.780  11.927  1.00  0.00     0.002 C 
HETATM   12  C12 UNL     1       1.831   8.242  12.896  1.00  0.00     0.007 C 
HETATM   13  C11 UNL     1       1.787   8.137  11.365  1.00  0.00     0.002 C 
HETATM   14  C2  UNL     1       3.186   7.990  10.653  1.00  0.00    -0.016 C 
HETATM   15  C10 UNL     1       0.762   7.044  10.919  1.00  0.00    -0.004 C 
HETATM   16  C1  UNL     1       3.002   8.313   9.141  1.00  0.00     0.020 C 
HETATM   17  C3  UNL     1       4.232   8.990  11.223  1.00  0.00     0.022 C 
HETATM   18  C7  UNL     1       3.750   6.580  10.807  1.00  0.00    -0.068 C 
HETATM   19  C4  UNL     1       5.614   8.835  10.592  1.00  0.00     0.084 C 
HETATM   20  C5  UNL     1       6.079   7.398  10.639  1.00  0.00     0.149 C 
HETATM   21  O1  UNL     1       7.264   7.095  10.525  1.00  0.00    -0.293 OA
HETATM   22  C6  UNL     1       5.070   6.322  10.796  1.00  0.00     0.053 C 
HETATM   23  C8  UNL     1       2.773   5.449  11.000  1.00  0.00     0.035 C 
HETATM   24  C9  UNL     1       1.404   5.740  10.398  1.00  0.00     0.010 C 
HETATM   25  C17 UNL     1      -0.198   5.640  12.946  1.00  0.00     0.009 C 
HETATM   26  C18 UNL     1      -1.062   5.990  14.163  1.00  0.00     0.047 C 
BRANCH   7  27
HETATM   27  O2  UNL     1      -1.853   8.117  15.013  1.00  0.00    -0.381 OA
HETATM   28  H27 UNL     1      -2.143   7.507  15.724  1.00  0.00     0.211 HD
ENDBRANCH   7  27
ENDBRANCH   5   7
ENDBRANCH   4   5
ENDBRANCH   3   4
ENDBRANCH   1   3
BRANCH   1  29
HETATM   29  C23 UNL     1      -5.211   3.254  12.421  1.00  0.00     0.120 C 
BRANCH  29  30
HETATM   30  C24 UNL     1      -6.516   3.964  12.085  1.00  0.00     0.112 C 
BRANCH  30  31
HETATM   31  C25 UNL     1      -7.478   3.979  13.257  1.00  0.00     0.217 C 
HETATM   32  O6  UNL     1      -8.566   3.417  13.248  1.00  0.00    -0.274 OA
HETATM   33  N1  UNL     1      -6.996   4.687  14.338  1.00  0.00    -0.361 N 
HETATM   34  H34 UNL     1      -6.211   5.308  14.186  1.00  0.00     0.162 HD
BRANCH  33  35
HETATM   35  C26 UNL     1      -7.819   4.916  15.508  1.00  0.00     0.122 C 
BRANCH  35  36
HETATM   36  C27 UNL     1      -7.543   6.272  16.153  1.00  0.00     0.020 C 
BRANCH  36  37
HETATM   37  C28 UNL     1      -8.768   7.189  16.255  1.00  0.00     0.002 C 
BRANCH  37  38
HETATM   38  C29 UNL     1      -8.891   8.269  15.170  1.00  0.00     0.009 C 
BRANCH  38  39
HETATM   39  C30 UNL     1     -10.325   8.666  14.817  1.00  0.00     0.103 C 
BRANCH  39  40
HETATM   40  C31 UNL     1     -11.096   7.571  14.101  1.00  0.00     0.217 C 
HETATM   41  O7  UNL     1     -10.825   7.167  12.977  1.00  0.00    -0.274 OA
HETATM   42  N2  UNL     1     -12.166   7.103  14.835  1.00  0.00    -0.361 N 
HETATM   43  H45 UNL     1     -12.205   7.329  15.822  1.00  0.00     0.162 HD
BRANCH  42  44
HETATM   44  C32 UNL     1     -12.983   5.999  14.368  1.00  0.00     0.127 C 
BRANCH  44  45
HETATM   45  C33 UNL     1     -14.473   6.346  14.261  1.00  0.00     0.058 C 
BRANCH  45  46
HETATM   46  C34 UNL     1     -15.373   5.246  14.778  1.00  0.00    -0.054 A 
HETATM   47  C35 UNL     1     -16.628   5.567  15.325  1.00  0.00     0.010 A 
HETATM   48  C36 UNL     1     -17.487   4.565  15.777  1.00  0.00     0.040 A 
HETATM   49  C37 UNL     1     -17.089   3.242  15.682  1.00  0.00     0.098 A 
HETATM   50  C38 UNL     1     -15.846   2.907  15.148  1.00  0.00     0.099 A 
HETATM   51  C39 UNL     1     -14.983   3.900  14.693  1.00  0.00     0.046 A 
BRANCH  49  52
HETATM   52  O8  UNL     1     -17.933   2.258  16.113  1.00  0.00    -0.358 OA
HETATM   53  H52 UNL     1     -17.449   1.426  15.936  1.00  0.00     0.217 HD
ENDBRANCH  49  52
BRANCH  50  54
HETATM   54  O9  UNL     1     -15.519   1.581  15.086  1.00  0.00    -0.358 OA
HETATM   55  H53 UNL     1     -14.618   1.505  14.726  1.00  0.00     0.217 HD
ENDBRANCH  50  54
ENDBRANCH  45  46
ENDBRANCH  44  45
ENDBRANCH  42  44
ENDBRANCH  39  40
ENDBRANCH  38  39
ENDBRANCH  37  38
ENDBRANCH  36  37
ENDBRANCH  35  36
ENDBRANCH  33  35
ENDBRANCH  30  31
ENDBRANCH  29  30
ENDBRANCH   1  29
TORSDOF 19
ENDMDL
