MODEL 1
REMARK minimizedAffinity -9.87983704
REMARK  6 active torsions:
REMARK  status: ('A' for Active; 'I' for Inactive)
REMARK    1  A    between atoms: C2_2  and  C3_3 
REMARK    2  A    between atoms: C2_2  and  C9_11 
REMARK    3  A    between atoms: C3_3  and  C4_4 
REMARK    4  A    between atoms: C5_5  and  C6_6 
REMARK    5  A    between atoms: C6_6  and  O1_9 
REMARK    6  A    between atoms: O1_9  and  O2_10 
ROOT
HETATM    1  C9  UNL     1      -5.528  49.156 -22.680  1.00  0.00    -0.001 C 
HETATM    2  C10 UNL     1      -5.321  49.957 -21.363  1.00  0.00     0.007 C 
HETATM    3  C11 UNL     1      -4.046  50.803 -21.532  1.00  0.00     0.024 C 
HETATM    4  C12 UNL     1      -3.670  50.634 -22.986  1.00  0.00     0.092 C 
HETATM    5  C13 UNL     1      -4.388  51.673 -23.887  1.00  0.00     0.272 C 
HETATM    6  O3  UNL     1      -5.453  52.229 -23.686  1.00  0.00    -0.264 OA
HETATM    7  O4  UNL     1      -3.613  51.877 -25.014  1.00  0.00    -0.305 OA
HETATM    8  C14 UNL     1      -2.432  51.043 -24.931  1.00  0.00     0.113 C 
HETATM    9  C15 UNL     1      -2.827  49.657 -25.535  1.00  0.00     0.043 C 
HETATM   10  C16 UNL     1      -4.112  49.048 -24.906  1.00  0.00     0.014 C 
HETATM   11  C17 UNL     1      -4.124  49.184 -23.361  1.00  0.00    -0.020 C 
HETATM   12  C18 UNL     1      -3.198  48.093 -22.779  1.00  0.00     0.017 C 
HETATM   13  C19 UNL     1      -2.293  50.909 -23.451  1.00  0.00     0.137 A 
HETATM   14  O5  UNL     1      -1.156  50.317 -22.856  1.00  0.00    -0.364 OA
HETATM   15  C20 UNL     1      -1.313  51.741 -22.668  1.00  0.00     0.162 A 
HETATM   16  C21 UNL     1      -0.297  52.576 -23.375  1.00  0.00     0.041 C 
HETATM   17  C22 UNL     1      -0.768  53.005 -24.781  1.00  0.00     0.010 C 
HETATM   18  C23 UNL     1       0.302  53.883 -25.489  1.00  0.00     0.056 C 
HETATM   19  C24 UNL     1       0.644  55.155 -24.705  1.00  0.00     0.018 C 
HETATM   20  C25 UNL     1      -0.177  54.251 -26.891  1.00  0.00     0.131 C 
HETATM   21  O6  UNL     1      -0.141  55.398 -27.333  1.00  0.00    -0.298 OA
HETATM   22  C26 UNL     1      -0.619  53.105 -27.766  1.00  0.00     0.079 C 
HETATM   23  C27 UNL     1      -1.673  52.281 -27.041  1.00  0.00     0.020 C 
HETATM   24  C28 UNL     1      -1.220  51.759 -25.642  1.00  0.00    -0.004 C 
HETATM   25  C29 UNL     1      -0.049  50.763 -25.849  1.00  0.00     0.019 C 
ENDROOT
BRANCH   1  26
HETATM   26  C2  UNL     1      -6.359  47.852 -22.496  1.00  0.00    -0.010 C 
HETATM   27  C1  UNL     1      -5.852  46.846 -21.451  1.00  0.00     0.010 C 
BRANCH  26  28
HETATM   28  C3  UNL     1      -6.620  47.150 -23.847  1.00  0.00     0.031 C 
BRANCH  28  29
HETATM   29  C4  UNL     1      -7.912  47.576 -24.494  1.00  0.00    -0.027 C 
HETATM   30  C5  UNL     1      -8.182  47.415 -25.800  1.00  0.00     0.009 C 
BRANCH  30  31
HETATM   31  C6  UNL     1      -9.451  47.809 -26.538  1.00  0.00     0.106 C 
HETATM   32  C7  UNL     1     -10.408  46.662 -26.898  1.00  0.00     0.053 C 
HETATM   33  C8  UNL     1      -9.046  48.525 -27.836  1.00  0.00     0.053 C 
BRANCH  31  34
HETATM   34  O1  UNL     1     -10.142  48.801 -25.747  1.00  0.00    -0.229 OA
BRANCH  34  35
HETATM   35  O2  UNL     1      -9.649  50.118 -26.145  1.00  0.00    -0.249 OA
HETATM   36  H15 UNL     1     -10.372  50.325 -26.765  1.00  0.00     0.253 HD
ENDBRANCH  34  35
ENDBRANCH  31  34
ENDBRANCH  30  31
ENDBRANCH  28  29
ENDBRANCH  26  28
ENDBRANCH   1  26
TORSDOF 6
ENDMDL
