MODEL 1
REMARK minimizedAffinity -5.66777277
REMARK CNNscore 0.421494037
REMARK CNNaffinity 5.95612335
REMARK  6 active torsions:
REMARK  status: ('A' for Active; 'I' for Inactive)
REMARK    1  A    between atoms: C9_10  and  C10_11 
REMARK    2  A    between atoms: C11_13  and  O3_14 
REMARK    3  A    between atoms: C12_15  and  C13_16 
REMARK    4  A    between atoms: C14_18  and  O5_19 
REMARK    5  A    between atoms: C16_21  and  C17_22 
REMARK    6  A    between atoms: C17_22  and  C18_23 
ROOT
HETATM    1  C1  UNL     1       6.217  38.529 -23.153  1.00  0.00     0.043 C 
HETATM    2  C2  UNL     1       7.555  38.439 -22.442  1.00  0.00    -0.087 C 
HETATM    3  C3  UNL     1       8.531  37.713 -23.022  1.00  0.00    -0.024 C 
HETATM    4  C4  UNL     1       9.916  37.382 -22.565  1.00  0.00     0.030 C 
HETATM    5  C5  UNL     1      11.023  37.915 -23.481  1.00  0.00     0.042 C 
HETATM    6  C6  UNL     1      11.221  39.454 -23.622  1.00  0.00     0.069 C 
HETATM    7  C7  UNL     1      10.017  40.100 -24.345  1.00  0.00     0.047 C 
HETATM    8  O1  UNL     1      12.312  39.527 -24.611  1.00  0.00    -0.338 OA
HETATM    9  C8  UNL     1      12.916  40.756 -24.687  1.00  0.00     0.095 A 
HETATM   10  C9  UNL     1      13.126  41.350 -25.934  1.00  0.00     0.070 A 
HETATM   11  C11 UNL     1      13.683  42.632 -26.001  1.00  0.00     0.097 A 
HETATM   12  C12 UNL     1      14.025  43.298 -24.819  1.00  0.00     0.069 A 
HETATM   13  C14 UNL     1      13.838  42.670 -23.569  1.00  0.00     0.091 A 
HETATM   14  C15 UNL     1      13.323  41.371 -23.493  1.00  0.00     0.015 A 
HETATM   15  C16 UNL     1      13.127  40.500 -22.266  1.00  0.00     0.032 C 
HETATM   16  C21 UNL     1      11.615  40.099 -22.210  1.00  0.00     0.034 C 
HETATM   17  C22 UNL     1      10.700  41.255 -21.831  1.00  0.00     0.006 A 
HETATM   18  C23 UNL     1       9.333  41.050 -21.167  1.00  0.00    -0.001 A 
HETATM   19  C24 UNL     1       8.814  39.798 -20.500  1.00  0.00     0.010 C 
HETATM   20  C25 UNL     1       7.553  39.188 -21.123  1.00  0.00     0.034 C 
HETATM   21  C26 UNL     1      10.429  41.825 -20.438  1.00  0.00    -0.039 A 
HETATM   22  C27 UNL     1      10.260  43.327 -20.342  1.00  0.00     0.015 C 
HETATM   23  C28 UNL     1      11.012  41.235 -19.176  1.00  0.00     0.015 C 
ENDROOT
BRANCH  15  24
HETATM   24  C17 UNL     1      13.727  40.934 -20.918  1.00  0.00     0.014 C 
BRANCH  24  25
HETATM   25  C18 UNL     1      14.673  39.904 -20.251  1.00  0.00    -0.022 C 
HETATM   26  C19 UNL     1      15.602  39.225 -21.263  1.00  0.00     0.009 C 
HETATM   27  C20 UNL     1      13.840  38.836 -19.533  1.00  0.00     0.009 C 
ENDBRANCH  24  25
ENDBRANCH  15  24
BRANCH  13  28
HETATM   28  O5  UNL     1      14.131  43.329 -22.406  1.00  0.00    -0.359 OA
HETATM   29  H15 UNL     1      14.509  44.213 -22.621  1.00  0.00     0.217 HD
ENDBRANCH  13  28
BRANCH  10  30
HETATM   30  C10 UNL     1      12.729  40.629 -27.159  1.00  0.00     0.275 C 
HETATM   31  O2  UNL     1      11.901  41.120 -27.923  1.00  0.00    -0.301 OA
ENDBRANCH  10  30
BRANCH  12  32
HETATM   32  C13 UNL     1      14.579  44.666 -24.901  1.00  0.00     0.275 C 
HETATM   33  O4  UNL     1      14.043  45.517 -25.609  1.00  0.00    -0.301 OA
ENDBRANCH  12  32
BRANCH  11  34
HETATM   34  O3  UNL     1      13.891  43.266 -27.200  1.00  0.00    -0.359 OA
HETATM   35  H13 UNL     1      13.587  42.674 -27.929  1.00  0.00     0.217 HD
ENDBRANCH  11  34
TORSDOF 6
ENDMDL
