MODEL 1
REMARK minimizedAffinity -6.4855237
REMARK  16 active torsions:
REMARK  status: ('A' for Active; 'I' for Inactive)
REMARK    1  A    between atoms: C2_2  and  C3_3 
REMARK    2  A    between atoms: C3_3  and  C4_4 
REMARK    3  A    between atoms: C4_4  and  C5_5 
REMARK    4  A    between atoms: C5_5  and  C6_6 
REMARK    5  A    between atoms: C6_6  and  C7_7 
REMARK    6  A    between atoms: C7_7  and  C8_8 
REMARK    7  A    between atoms: C8_8  and  N1_9 
REMARK    8  A    between atoms: N1_9  and  C9_10 
REMARK    9  A    between atoms: N1_9  and  C11_12 
REMARK   10  A    between atoms: N1_9  and  C13_14 
REMARK   11  A    between atoms: C13_14  and  C14_15 
REMARK   12  A    between atoms: C14_15  and  O1_16 
REMARK   13  A    between atoms: O1_16  and  C15_17 
REMARK   14  A    between atoms: C15_17  and  C16_19 
REMARK   15  A    between atoms: C16_19  and  C17_20 
REMARK   16  A    between atoms: C16_19  and  C22_25 
ROOT
HETATM    1  C14 UNL     1      -3.046   6.630  15.010  1.00  0.00     0.206 C 
ENDROOT
BRANCH   1   2
HETATM    2  C13 UNL     1      -1.724   5.989  14.547  1.00  0.00     0.264 C 
BRANCH   2   3
HETATM    3  N1  UNL     1      -0.773   6.882  13.652  1.00  0.00    -0.066 N 
BRANCH   3   4
HETATM    4  C8  UNL     1      -0.420   6.098  12.363  1.00  0.00     0.237 C 
BRANCH   4   5
HETATM    5  C7  UNL     1       1.011   5.574  12.290  1.00  0.00     0.028 C 
BRANCH   5   6
HETATM    6  C6  UNL     1       1.801   6.318  11.205  1.00  0.00     0.002 C 
BRANCH   6   7
HETATM    7  C5  UNL     1       2.682   5.399  10.352  1.00  0.00     0.000 C 
BRANCH   7   8
HETATM    8  C4  UNL     1       2.923   5.931   8.936  1.00  0.00     0.000 C 
BRANCH   8   9
HETATM    9  C3  UNL     1       3.221   7.433   8.895  1.00  0.00    -0.000 C 
BRANCH   9  10
HETATM   10  C2  UNL     1       2.403   8.192   7.850  1.00  0.00    -0.005 C 
HETATM   11  C1  UNL     1       0.954   8.349   8.287  1.00  0.00     0.005 C 
ENDBRANCH   9  10
ENDBRANCH   8   9
ENDBRANCH   7   8
ENDBRANCH   6   7
ENDBRANCH   5   6
ENDBRANCH   4   5
ENDBRANCH   3   4
BRANCH   3  12
HETATM   12  C9  UNL     1      -1.659   8.137  13.303  1.00  0.00     0.233 C 
HETATM   13  C10 UNL     1      -1.213   8.945  12.092  1.00  0.00     0.035 C 
ENDBRANCH   3  12
BRANCH   3  14
HETATM   14  C11 UNL     1       0.460   7.335  14.467  1.00  0.00     0.233 C 
HETATM   15  C12 UNL     1       0.248   7.433  15.965  1.00  0.00     0.035 C 
ENDBRANCH   3  14
ENDBRANCH   2   3
ENDBRANCH   1   2
BRANCH   1  16
HETATM   16  O1  UNL     1      -4.168   5.773  14.724  1.00  0.00    -0.319 OA
BRANCH  16  17
HETATM   17  C15 UNL     1      -4.867   6.088  13.597  1.00  0.00     0.263 C 
HETATM   18  O2  UNL     1      -4.986   7.235  13.186  1.00  0.00    -0.265 OA
BRANCH  17  19
HETATM   19  C16 UNL     1      -5.472   4.866  12.919  1.00  0.00     0.093 C 
BRANCH  19  20
HETATM   20  C17 UNL     1      -6.717   4.351  13.696  1.00  0.00    -0.001 C 
HETATM   21  C18 UNL     1      -7.870   3.875  12.804  1.00  0.00     0.005 C 
HETATM   22  C19 UNL     1      -8.589   5.149  12.379  1.00  0.00     0.000 C 
HETATM   23  C20 UNL     1      -8.334   6.161  13.495  1.00  0.00     0.000 C 
HETATM   24  C21 UNL     1      -7.418   5.461  14.496  1.00  0.00     0.005 C 
ENDBRANCH  19  20
BRANCH  19  25
HETATM   25  C22 UNL     1      -4.410   3.779  12.646  1.00  0.00    -0.001 C 
HETATM   26  C23 UNL     1      -4.923   2.518  11.945  1.00  0.00     0.005 C 
HETATM   27  C24 UNL     1      -3.643   1.774  11.588  1.00  0.00     0.000 C 
HETATM   28  C25 UNL     1      -2.596   2.858  11.331  1.00  0.00     0.000 C 
HETATM   29  C26 UNL     1      -3.228   4.181  11.763  1.00  0.00     0.005 C 
ENDBRANCH  19  25
ENDBRANCH  17  19
ENDBRANCH  16  17
ENDBRANCH   1  16
TORSDOF 16
ENDMDL
