MODEL 1
REMARK minimizedAffinity -7.78323364
REMARK  13 active torsions:
REMARK  status: ('A' for Active; 'I' for Inactive)
REMARK    1  A    between atoms: C2_2  and  C3_3 
REMARK    2  A    between atoms: C3_3  and  C4_4 
REMARK    3  A    between atoms: C4_4  and  C5_5 
REMARK    4  A    between atoms: C5_5  and  C6_6 
REMARK    5  A    between atoms: C6_6  and  C7_7 
REMARK    6  A    between atoms: C7_7  and  C8_8 
REMARK    7  A    between atoms: C8_8  and  C9_9 
REMARK    8  A    between atoms: C9_9  and  C10_10 
REMARK    9  A    between atoms: C10_10  and  C11_11 
REMARK   10  A    between atoms: C11_11  and  C12_12 
REMARK   11  A    between atoms: C12_12  and  C13_13 
REMARK   12  A    between atoms: C13_13  and  O2_15 
REMARK   13  A    between atoms: O2_15  and  C14_16 
ROOT
HETATM    1  C14 UNL     1       4.976  -6.740  28.508  1.00  0.00     0.140 C 
HETATM    2  C15 UNL     1       5.653  -6.810  27.121  1.00  0.00     0.034 C 
HETATM    3  C16 UNL     1       7.106  -6.344  27.322  1.00  0.00     0.008 C 
HETATM    4  C17 UNL     1       7.250  -6.231  28.837  1.00  0.00     0.001 C 
HETATM    5  C18 UNL     1       8.388  -5.384  29.414  1.00  0.00    -0.004 C 
HETATM    6  C19 UNL     1       9.767  -5.869  28.926  1.00  0.00     0.010 C 
HETATM    7  C20 UNL     1      10.934  -5.072  29.528  1.00  0.00     0.035 C 
HETATM    8  C21 UNL     1      10.449  -4.107  30.582  1.00  0.00    -0.068 C 
HETATM    9  C22 UNL     1      10.721  -2.795  30.455  1.00  0.00     0.053 C 
HETATM   10  C23 UNL     1      10.046  -1.787  31.302  1.00  0.00     0.149 C 
HETATM   11  O3  UNL     1      10.393  -0.612  31.246  1.00  0.00    -0.293 OA
HETATM   12  C24 UNL     1       8.869  -2.249  32.120  1.00  0.00     0.084 C 
HETATM   13  C25 UNL     1       9.169  -3.615  32.717  1.00  0.00     0.022 C 
HETATM   14  C26 UNL     1       9.542  -4.702  31.667  1.00  0.00    -0.016 C 
HETATM   15  C27 UNL     1      10.350  -5.769  32.462  1.00  0.00     0.020 C 
HETATM   16  C28 UNL     1       8.323  -5.449  30.978  1.00  0.00     0.002 C 
HETATM   17  C29 UNL     1       6.912  -5.114  31.524  1.00  0.00     0.007 C 
HETATM   18  C30 UNL     1       5.782  -5.890  30.820  1.00  0.00     0.012 C 
HETATM   19  C31 UNL     1       5.860  -5.746  29.294  1.00  0.00    -0.013 C 
HETATM   20  C32 UNL     1       5.520  -4.286  28.897  1.00  0.00     0.018 C 
ENDROOT
BRANCH   1  21
HETATM   21  O2  UNL     1       3.621  -6.290  28.428  1.00  0.00    -0.315 OA
BRANCH  21  22
HETATM   22  C13 UNL     1       2.698  -7.257  28.169  1.00  0.00     0.259 C 
HETATM   23  O1  UNL     1       1.513  -7.203  28.466  1.00  0.00    -0.265 OA
BRANCH  22  24
HETATM   24  C12 UNL     1       3.350  -8.429  27.476  1.00  0.00     0.111 C 
BRANCH  24  25
HETATM   25  C11 UNL     1       2.406  -9.102  26.483  1.00  0.00     0.010 C 
BRANCH  25  26
HETATM   26  C10 UNL     1       2.946 -10.398  25.866  1.00  0.00     0.000 C 
BRANCH  26  27
HETATM   27  C9  UNL     1       2.333 -10.798  24.519  1.00  0.00     0.000 C 
BRANCH  27  28
HETATM   28  C8  UNL     1       2.574  -9.821  23.363  1.00  0.00     0.000 C 
BRANCH  28  29
HETATM   29  C7  UNL     1       1.323  -9.136  22.803  1.00  0.00     0.000 C 
BRANCH  29  30
HETATM   30  C6  UNL     1       1.341  -9.000  21.279  1.00  0.00     0.000 C 
BRANCH  30  31
HETATM   31  C5  UNL     1       1.319  -7.543  20.802  1.00  0.00     0.000 C 
BRANCH  31  32
HETATM   32  C4  UNL     1      -0.021  -7.133  20.184  1.00  0.00     0.000 C 
BRANCH  32  33
HETATM   33  C3  UNL     1      -0.797  -6.200  21.118  1.00  0.00    -0.000 C 
BRANCH  33  34
HETATM   34  C2  UNL     1      -1.879  -6.919  21.928  1.00  0.00    -0.005 C 
HETATM   35  C1  UNL     1      -1.582  -6.975  23.419  1.00  0.00     0.005 C 
ENDBRANCH  33  34
ENDBRANCH  32  33
ENDBRANCH  31  32
ENDBRANCH  30  31
ENDBRANCH  29  30
ENDBRANCH  28  29
ENDBRANCH  27  28
ENDBRANCH  26  27
ENDBRANCH  25  26
ENDBRANCH  24  25
ENDBRANCH  22  24
ENDBRANCH  21  22
ENDBRANCH   1  21
TORSDOF 13
ENDMDL
