MODEL 1
REMARK minimizedAffinity -7.38748646
REMARK CNNscore 0.730095804
REMARK CNNaffinity 6.97213745
REMARK  4 active torsions:
REMARK  status: ('A' for Active; 'I' for Inactive)
REMARK    1  A    between atoms: C2_2  and  C4_4 
REMARK    2  A    between atoms: C4_4  and  C5_5 
REMARK    3  A    between atoms: C5_5  and  O1_6 
REMARK    4  A    between atoms: C8_9  and  C9_10 
ROOT
HETATM    1  C9  UNL     1      -1.549  52.688 -11.303  1.00  0.00     0.001 C 
HETATM    2  C10 UNL     1      -2.648  52.649 -10.206  1.00  0.00     0.007 C 
HETATM    3  C11 UNL     1      -2.099  53.405  -8.983  1.00  0.00     0.011 C 
HETATM    4  C12 UNL     1      -0.885  54.191  -9.512  1.00  0.00    -0.032 C 
HETATM    5  C13 UNL     1      -1.452  55.495 -10.158  1.00  0.00     0.016 C 
HETATM    6  C14 UNL     1       0.171  54.540  -8.430  1.00  0.00     0.004 C 
HETATM    7  C15 UNL     1      -0.285  55.603  -7.422  1.00  0.00     0.007 C 
HETATM    8  C16 UNL     1       0.793  55.830  -6.365  1.00  0.00     0.007 C 
HETATM    9  C17 UNL     1       2.011  56.515  -6.997  1.00  0.00     0.010 C 
HETATM   10  C18 UNL     1       3.179  56.825  -6.006  1.00  0.00     0.018 C 
HETATM   11  C19 UNL     1       3.716  55.582  -5.280  1.00  0.00     0.023 C 
HETATM   12  C20 UNL     1       2.729  57.858  -4.957  1.00  0.00     0.023 C 
HETATM   13  C21 UNL     1       4.346  57.454  -6.784  1.00  0.00     0.135 C 
HETATM   14  O2  UNL     1       5.422  57.721  -6.244  1.00  0.00    -0.297 OA
HETATM   15  C22 UNL     1       4.101  57.822  -8.226  1.00  0.00     0.080 C 
HETATM   16  C23 UNL     1       3.586  56.622  -9.006  1.00  0.00     0.018 C 
HETATM   17  C24 UNL     1       2.525  55.809  -8.259  1.00  0.00    -0.026 A 
HETATM   18  C25 UNL     1       2.732  54.312  -8.277  1.00  0.00     0.021 A 
HETATM   19  C26 UNL     1       1.554  54.879  -9.045  1.00  0.00    -0.027 A 
HETATM   20  C27 UNL     1       1.655  54.891 -10.574  1.00  0.00     0.011 C 
HETATM   21  C28 UNL     1       0.793  53.886 -11.362  1.00  0.00     0.011 C 
HETATM   22  C29 UNL     1      -0.273  53.158 -10.531  1.00  0.00    -0.032 C 
HETATM   23  C30 UNL     1       0.412  51.936  -9.859  1.00  0.00     0.016 C 
ENDROOT
BRANCH   1  24
HETATM   24  C8  UNL     1      -1.576  51.462 -12.259  1.00  0.00     0.014 C 
HETATM   25  C7  UNL     1      -2.992  51.096 -12.716  1.00  0.00     0.010 C 
HETATM   26  C6  UNL     1      -2.985  49.790 -13.512  1.00  0.00     0.041 C 
HETATM   27  C4  UNL     1      -1.943  49.769 -14.656  1.00  0.00     0.085 C 
HETATM   28  O3  UNL     1      -0.660  50.206 -14.145  1.00  0.00    -0.377 OA
HETATM   29  C31 UNL     1      -0.640  51.470 -13.472  1.00  0.00     0.174 C 
BRANCH  27  30
HETATM   30  C2  UNL     1      -1.717  48.281 -15.120  1.00  0.00     0.014 C 
HETATM   31  C1  UNL     1      -2.687  47.799 -16.210  1.00  0.00     0.012 C 
HETATM   32  C3  UNL     1      -1.708  47.258 -13.978  1.00  0.00     0.012 C 
ENDBRANCH  27  30
BRANCH  27  33
HETATM   33  C5  UNL     1      -2.384  50.704 -15.816  1.00  0.00     0.202 C 
BRANCH  33  34
HETATM   34  O1  UNL     1      -3.666  51.281 -15.572  1.00  0.00    -0.398 OA
HETATM   35  H10 UNL     1      -4.169  50.608 -15.074  1.00  0.00     0.209 HD
ENDBRANCH  33  34
ENDBRANCH  27  33
ENDBRANCH   1  24
TORSDOF 4
ENDMDL
