MODEL 1
REMARK minimizedAffinity -7.10290098
REMARK CNNscore 0.617460668
REMARK CNNaffinity 6.81567526
REMARK  6 active torsions:
REMARK  status: ('A' for Active; 'I' for Inactive)
REMARK    1  A    between atoms: C2_2  and  C30_32 
REMARK    2  A    between atoms: C3_3  and  C4_4 
REMARK    3  A    between atoms: C4_4  and  C5_5 
REMARK    4  A    between atoms: C5_5  and  C6_6 
REMARK    5  A    between atoms: C6_6  and  C8_8 
REMARK    6  A    between atoms: C30_32  and  O4_34 
ROOT
HETATM    1  C8  UNL     1       2.568  54.879  -9.085  1.00  0.00    -0.002 C 
HETATM    2  C9  UNL     1       2.887  54.034  -7.819  1.00  0.00     0.007 C 
HETATM    3  C10 UNL     1       1.679  53.106  -7.580  1.00  0.00     0.015 C 
HETATM    4  C11 UNL     1       0.546  53.701  -8.436  1.00  0.00    -0.005 C 
HETATM    5  C12 UNL     1      -0.080  54.876  -7.618  1.00  0.00     0.021 C 
HETATM    6  C13 UNL     1      -0.637  52.840  -8.842  1.00  0.00    -0.000 C 
HETATM    7  C14 UNL     1      -1.336  53.054  -9.985  1.00  0.00    -0.060 C 
HETATM    8  C15 UNL     1      -0.860  54.155 -10.960  1.00  0.00     0.036 C 
HETATM    9  C16 UNL     1       0.413  54.953 -10.595  1.00  0.00     0.015 C 
HETATM   10  C17 UNL     1       1.362  54.126  -9.720  1.00  0.00    -0.028 C 
HETATM   11  C18 UNL     1       1.865  52.911 -10.553  1.00  0.00     0.016 C 
HETATM   12  C19 UNL     1      -2.660  52.304 -10.350  1.00  0.00    -0.014 C 
HETATM   13  C20 UNL     1      -3.768  53.397 -10.317  1.00  0.00     0.020 C 
HETATM   14  C21 UNL     1      -2.609  51.717 -11.791  1.00  0.00     0.021 C 
HETATM   15  C22 UNL     1      -2.145  50.273 -11.837  1.00  0.00     0.080 C 
HETATM   16  C23 UNL     1      -3.139  49.383 -11.127  1.00  0.00     0.135 C 
HETATM   17  O1  UNL     1      -3.320  48.227 -11.514  1.00  0.00    -0.297 OA
HETATM   18  C24 UNL     1      -3.890  49.964  -9.921  1.00  0.00     0.018 C 
HETATM   19  C25 UNL     1      -5.300  50.377 -10.388  1.00  0.00     0.023 C 
HETATM   20  C26 UNL     1      -4.095  48.830  -8.888  1.00  0.00     0.023 C 
HETATM   21  C27 UNL     1      -3.073  51.170  -9.307  1.00  0.00     0.020 C 
HETATM   22  C28 UNL     1      -1.862  50.648  -8.517  1.00  0.00     0.090 C 
HETATM   23  C29 UNL     1      -1.082  51.775  -7.915  1.00  0.00     0.157 C 
HETATM   24  O2  UNL     1      -0.780  51.784  -6.725  1.00  0.00    -0.293 OA
ENDROOT
BRANCH   1  25
HETATM   25  C6  UNL     1       3.833  55.302  -9.891  1.00  0.00    -0.014 C 
HETATM   26  C7  UNL     1       3.631  56.318 -11.021  1.00  0.00     0.010 C 
BRANCH  25  27
HETATM   27  C5  UNL     1       4.979  55.747  -8.956  1.00  0.00     0.008 C 
BRANCH  27  28
HETATM   28  C4  UNL     1       6.296  55.004  -9.213  1.00  0.00     0.028 C 
BRANCH  28  29
HETATM   29  C3  UNL     1       6.607  54.045  -8.097  1.00  0.00    -0.013 C 
HETATM   30  C2  UNL     1       6.625  52.697  -8.132  1.00  0.00     0.008 C 
HETATM   31  C1  UNL     1       7.055  51.882  -6.946  1.00  0.00     0.055 C 
BRANCH  30  32
HETATM   32  C30 UNL     1       6.255  51.880  -9.309  1.00  0.00     0.171 C 
HETATM   33  O3  UNL     1       5.130  51.773  -9.766  1.00  0.00    -0.646 OA
BRANCH  32  34
HETATM   34  O4  UNL     1       7.310  51.317  -9.919  1.00  0.00    -0.773 OA
HETATM   35  H44 UNL     1       6.912  50.857 -10.687  1.00  0.00     0.167 HD
ENDBRANCH  32  34
ENDBRANCH  30  32
ENDBRANCH  28  29
ENDBRANCH  27  28
ENDBRANCH  25  27
ENDBRANCH   1  25
TORSDOF 6
ENDMDL
