MODEL 1
REMARK minimizedAffinity -7.96579695
REMARK CNNscore 0.405984402
REMARK CNNaffinity 6.86700821
REMARK  11 active torsions:
REMARK  status: ('A' for Active; 'I' for Inactive)
REMARK    1  A    between atoms: C3_4  and  O2_5 
REMARK    2  A    between atoms: O2_5  and  C4_6 
REMARK    3  A    between atoms: C7_9  and  C8_10 
REMARK    4  A    between atoms: N1_11  and  C9_13 
REMARK    5  A    between atoms: C9_13  and  C10_14 
REMARK    6  A    between atoms: C10_14  and  C11_15 
REMARK    7  A    between atoms: C22_26  and  C23_27 
REMARK    8  A    between atoms: C29_35  and  O5_36 
REMARK    9  A    between atoms: C33_40  and  O6_41 
REMARK   10  A    between atoms: C36_44  and  O7_45 
REMARK   11  A    between atoms: C37_46  and  O8_47 
ROOT
HETATM    1  C4  UNL     1       1.940  50.531 -13.183  1.00  0.00     0.127 C 
HETATM    2  C5  UNL     1       0.770  51.515 -13.105  1.00  0.00     0.033 C 
HETATM    3  C6  UNL     1       1.099  52.713 -12.221  1.00  0.00     0.021 C 
HETATM    4  C7  UNL     1       1.502  52.352 -10.754  1.00  0.00     0.026 C 
HETATM    5  C17 UNL     1       2.774  53.212 -10.353  1.00  0.00     0.009 C 
HETATM    6  C18 UNL     1       2.548  54.740 -10.406  1.00  0.00     0.007 C 
HETATM    7  C19 UNL     1       3.820  55.526 -10.097  1.00  0.00     0.013 C 
HETATM    8  C20 UNL     1       4.416  55.190  -8.701  1.00  0.00    -0.005 C 
HETATM    9  C21 UNL     1       3.483  55.765  -7.612  1.00  0.00     0.019 C 
HETATM   10  C22 UNL     1       5.873  55.765  -8.637  1.00  0.00     0.028 C 
HETATM   11  C27 UNL     1       6.735  54.673  -9.316  1.00  0.00     0.013 C 
HETATM   12  C28 UNL     1       5.883  53.400  -9.418  1.00  0.00     0.040 C 
HETATM   13  C29 UNL     1       4.622  53.654  -8.577  1.00  0.00     0.070 C 
HETATM   14  C30 UNL     1       3.384  52.804  -8.990  1.00  0.00     0.026 C 
HETATM   15  C31 UNL     1       3.714  51.302  -8.977  1.00  0.00     0.011 C 
HETATM   16  C32 UNL     1       2.489  50.460  -9.283  1.00  0.00     0.039 C 
HETATM   17  C33 UNL     1       1.799  50.813 -10.616  1.00  0.00     0.073 C 
HETATM   18  C34 UNL     1       2.621  50.301 -11.818  1.00  0.00     0.071 C 
ENDROOT
BRANCH   1  19
HETATM   19  O2  UNL     1       1.555  49.253 -13.701  1.00  0.00    -0.356 OA
BRANCH  19  20
HETATM   20  C3  UNL     1       0.970  49.289 -15.001  1.00  0.00     0.263 C 
HETATM   21  O1  UNL     1       1.069  50.590 -15.568  1.00  0.00    -0.354 OA
HETATM   22  C2  UNL     1       0.741  50.592 -16.969  1.00  0.00     0.151 C 
HETATM   23  C1  UNL     1       0.730  52.050 -17.420  1.00  0.00     0.042 C 
HETATM   24  C37 UNL     1      -0.573  49.817 -17.242  1.00  0.00     0.175 C 
HETATM   25  C36 UNL     1      -1.361  49.591 -15.944  1.00  0.00     0.154 C 
HETATM   26  C35 UNL     1      -0.513  48.924 -14.864  1.00  0.00     0.095 C 
BRANCH  24  27
HETATM   27  O8  UNL     1      -1.405  50.466 -18.201  1.00  0.00    -0.390 OA
HETATM   28  H51 UNL     1      -1.963  51.091 -17.693  1.00  0.00     0.210 HD
ENDBRANCH  24  27
BRANCH  25  29
HETATM   29  O7  UNL     1      -1.846  50.859 -15.476  1.00  0.00    -0.393 OA
HETATM   30  H49 UNL     1      -1.065  51.359 -15.142  1.00  0.00     0.210 HD
ENDBRANCH  25  29
ENDBRANCH  19  20
ENDBRANCH   1  19
BRANCH  17  31
HETATM   31  O6  UNL     1       0.560  50.081 -10.615  1.00  0.00    -0.389 OA
HETATM   32  H43 UNL     1       0.755  49.136 -10.458  1.00  0.00     0.210 HD
ENDBRANCH  17  31
BRANCH   4  33
HETATM   33  C8  UNL     1       0.317  52.684  -9.827  1.00  0.00     0.068 C 
HETATM   34  N1  UNL     1       0.139  52.071  -8.705  1.00  0.00    -0.401 N 
ATOM     35  H1  UNL     1       0.766  51.339  -8.371  1.00  0.00     0.158 HD
BRANCH  34  36
HETATM   36  C9  UNL     1      -1.040  52.514  -7.950  1.00  0.00     0.123 C 
BRANCH  36  37
HETATM   37  C10 UNL     1      -2.261  51.695  -8.388  1.00  0.00     0.058 C 
BRANCH  37  38
HETATM   38  C11 UNL     1      -2.821  52.107  -9.729  1.00  0.00    -0.057 A 
HETATM   39  C12 UNL     1      -2.846  51.202 -10.799  1.00  0.00     0.007 A 
HETATM   40  C13 UNL     1      -3.356  51.589 -12.042  1.00  0.00     0.001 A 
HETATM   41  C14 UNL     1      -3.843  52.883 -12.225  1.00  0.00     0.000 A 
HETATM   42  C15 UNL     1      -3.821  53.790 -11.168  1.00  0.00     0.001 A 
HETATM   43  C16 UNL     1      -3.310  53.406  -9.928  1.00  0.00     0.007 A 
ENDBRANCH  37  38
ENDBRANCH  36  37
ENDBRANCH  34  36
ENDBRANCH   4  33
BRANCH  13  44
HETATM   44  O5  UNL     1       4.963  53.306  -7.229  1.00  0.00    -0.389 OA
HETATM   45  H37 UNL     1       4.168  53.386  -6.675  1.00  0.00     0.210 HD
ENDBRANCH  13  44
BRANCH  10  46
HETATM   46  C23 UNL     1       6.392  56.171  -7.277  1.00  0.00    -0.045 A 
HETATM   47  C24 UNL     1       5.983  57.155  -6.473  1.00  0.00     0.087 A 
HETATM   48  C25 UNL     1       6.806  57.100  -5.267  1.00  0.00     0.283 A 
HETATM   49  O3  UNL     1       6.722  57.868  -4.327  1.00  0.00    -0.260 OA
HETATM   50  O4  UNL     1       7.677  56.060  -5.368  1.00  0.00    -0.314 OA
HETATM   51  C26 UNL     1       7.472  55.398  -6.614  1.00  0.00     0.213 A 
ENDBRANCH  10  46
TORSDOF 11
ENDMDL
