MODEL 1
REMARK minimizedAffinity -6.8685112
REMARK CNNscore 0.52616632
REMARK CNNaffinity 6.6734519
REMARK  6 active torsions:
REMARK  status: ('A' for Active; 'I' for Inactive)
REMARK    1  A    between atoms: C4_4  and  C5_5 
REMARK    2  A    between atoms: C5_5  and  C6_6 
REMARK    3  A    between atoms: C6_6  and  C7_7 
REMARK    4  A    between atoms: C7_7  and  C9_9 
REMARK    5  A    between atoms: C17_17  and  C18_18 
REMARK    6  A    between atoms: C18_18  and  O1_21 
ROOT
HETATM    1  C9  UNL     1      -3.176  12.639  18.426  1.00  0.00    -0.002 C 
HETATM    2  C10 UNL     1      -1.697  12.718  18.899  1.00  0.00     0.006 C 
HETATM    3  C11 UNL     1      -0.910  11.672  18.059  1.00  0.00     0.011 C 
HETATM    4  C12 UNL     1      -2.008  10.811  17.394  1.00  0.00    -0.032 C 
HETATM    5  C13 UNL     1      -2.459   9.807  18.508  1.00  0.00     0.016 C 
HETATM    6  C14 UNL     1      -1.606  10.060  16.090  1.00  0.00     0.003 C 
HETATM    7  C15 UNL     1      -0.491   9.026  16.251  1.00  0.00     0.009 C 
HETATM    8  C16 UNL     1       0.116   8.732  14.883  1.00  0.00     0.042 C 
HETATM    9  C17 UNL     1      -0.884   8.293  13.770  1.00  0.00     0.095 C 
HETATM   10  O2  UNL     1      -1.194   6.921  14.116  1.00  0.00    -0.377 OA
HETATM   11  C21 UNL     1      -2.056   6.230  13.220  1.00  0.00     0.169 C 
HETATM   12  C22 UNL     1      -3.371   6.941  12.948  1.00  0.00     0.027 C 
HETATM   13  C23 UNL     1      -3.289   8.465  12.878  1.00  0.00     0.010 C 
HETATM   14  C24 UNL     1      -2.237   9.110  13.810  1.00  0.00     0.032 C 
HETATM   15  C25 UNL     1      -2.809   9.447  15.273  1.00  0.00    -0.033 C 
HETATM   16  C26 UNL     1      -3.420   8.187  15.933  1.00  0.00     0.016 C 
HETATM   17  C27 UNL     1      -3.985  10.492  15.166  1.00  0.00     0.011 C 
HETATM   18  C28 UNL     1      -4.315  11.283  16.456  1.00  0.00     0.011 C 
HETATM   19  C29 UNL     1      -3.057  11.945  17.040  1.00  0.00    -0.032 C 
HETATM   20  C30 UNL     1      -2.551  12.975  15.982  1.00  0.00     0.016 C 
ENDROOT
BRANCH   1  21
HETATM   21  C7  UNL     1      -4.086  13.873  18.666  1.00  0.00    -0.014 C 
HETATM   22  C8  UNL     1      -5.126  13.964  17.531  1.00  0.00     0.010 C 
BRANCH  21  23
HETATM   23  C6  UNL     1      -4.786  14.126  20.018  1.00  0.00     0.008 C 
BRANCH  23  24
HETATM   24  C5  UNL     1      -6.240  13.675  20.164  1.00  0.00     0.028 C 
BRANCH  24  25
HETATM   25  C4  UNL     1      -6.614  13.464  21.608  1.00  0.00    -0.025 C 
HETATM   26  C2  UNL     1      -7.823  13.141  22.104  1.00  0.00    -0.091 C 
HETATM   27  C1  UNL     1      -9.046  12.859  21.273  1.00  0.00     0.042 C 
HETATM   28  C3  UNL     1      -8.026  12.985  23.589  1.00  0.00     0.042 C 
ENDBRANCH  24  25
ENDBRANCH  23  24
ENDBRANCH  21  23
ENDBRANCH   1  21
BRANCH   9  29
HETATM   29  C18 UNL     1      -0.099   8.375  12.351  1.00  0.00     0.082 C 
HETATM   30  C19 UNL     1      -0.000   6.992  11.673  1.00  0.00     0.049 C 
HETATM   31  C20 UNL     1       1.317   8.978  12.462  1.00  0.00     0.049 C 
BRANCH  29  32
HETATM   32  O1  UNL     1      -0.781   9.228  11.415  1.00  0.00    -0.388 OA
HETATM   33  H35 UNL     1      -0.296   9.209  10.573  1.00  0.00     0.210 HD
ENDBRANCH  29  32
ENDBRANCH   9  29
TORSDOF 6
ENDMDL
