MODEL 1
REMARK minimizedAffinity -7.68295717
REMARK CNNscore 0.759404957
REMARK CNNaffinity 7.10453606
REMARK  4 active torsions:
REMARK  status: ('A' for Active; 'I' for Inactive)
REMARK    1  A    between atoms: C4_4  and  C5_5 
REMARK    2  A    between atoms: C5_5  and  C6_6 
REMARK    3  A    between atoms: C6_6  and  C7_7 
REMARK    4  A    between atoms: C7_7  and  C9_9 
ROOT
HETATM    1  C9  UNL     1       5.303  55.563  -7.768  1.00  0.00    -0.002 C 
HETATM    2  C10 UNL     1       6.164  54.971  -8.886  1.00  0.00     0.007 C 
HETATM    3  C11 UNL     1       5.174  54.150  -9.685  1.00  0.00     0.015 C 
HETATM    4  C12 UNL     1       3.943  55.075  -9.865  1.00  0.00    -0.013 C 
HETATM    5  C13 UNL     1       4.190  55.937 -11.132  1.00  0.00     0.021 C 
HETATM    6  C14 UNL     1       2.653  54.271 -10.143  1.00  0.00    -0.070 C 
HETATM    7  C15 UNL     1       2.677  53.139 -10.877  1.00  0.00    -0.022 C 
HETATM    8  C16 UNL     1       1.476  52.357 -11.311  1.00  0.00     0.034 C 
HETATM    9  C17 UNL     1       0.148  53.111 -11.112  1.00  0.00     0.013 C 
HETATM   10  C18 UNL     1      -1.111  52.250 -11.489  1.00  0.00     0.018 C 
HETATM   11  C19 UNL     1      -1.022  50.764 -11.094  1.00  0.00     0.023 C 
HETATM   12  C20 UNL     1      -1.328  52.302 -13.018  1.00  0.00     0.023 C 
HETATM   13  C21 UNL     1      -2.360  52.867 -10.856  1.00  0.00     0.135 C 
HETATM   14  O1  UNL     1      -3.391  52.228 -10.656  1.00  0.00    -0.297 OA
HETATM   15  C22 UNL     1      -2.295  54.340 -10.554  1.00  0.00     0.080 C 
HETATM   16  C23 UNL     1      -1.226  54.609  -9.510  1.00  0.00     0.017 C 
HETATM   17  C24 UNL     1       0.110  53.818  -9.708  1.00  0.00    -0.031 C 
HETATM   18  C25 UNL     1       0.225  52.778  -8.561  1.00  0.00     0.016 C 
HETATM   19  C26 UNL     1       1.323  54.848  -9.660  1.00  0.00     0.024 C 
HETATM   20  C27 UNL     1       1.415  55.588  -8.305  1.00  0.00     0.010 C 
HETATM   21  C28 UNL     1       2.763  55.437  -7.615  1.00  0.00     0.011 C 
HETATM   22  C29 UNL     1       3.937  55.918  -8.503  1.00  0.00    -0.029 C 
HETATM   23  C30 UNL     1       3.794  57.437  -8.762  1.00  0.00     0.016 C 
ENDROOT
BRANCH   1  24
HETATM   24  C7  UNL     1       6.037  56.667  -6.936  1.00  0.00    -0.014 C 
HETATM   25  C8  UNL     1       5.230  57.052  -5.690  1.00  0.00     0.010 C 
BRANCH  24  26
HETATM   26  C6  UNL     1       7.473  56.217  -6.539  1.00  0.00     0.008 C 
BRANCH  26  27
HETATM   27  C5  UNL     1       8.097  56.935  -5.330  1.00  0.00     0.028 C 
BRANCH  27  28
HETATM   28  C4  UNL     1       9.531  56.552  -5.074  1.00  0.00    -0.025 C 
HETATM   29  C2  UNL     1      10.584  57.363  -4.851  1.00  0.00    -0.091 C 
HETATM   30  C1  UNL     1      11.959  56.785  -4.627  1.00  0.00     0.042 C 
HETATM   31  C3  UNL     1      10.537  58.864  -4.803  1.00  0.00     0.042 C 
ENDBRANCH  27  28
ENDBRANCH  26  27
ENDBRANCH  24  26
ENDBRANCH   1  24
TORSDOF 4
ENDMDL
