MODEL 1
REMARK minimizedAffinity -7.08656502
REMARK CNNscore 0.912373722
REMARK CNNaffinity 7.26960897
REMARK  8 active torsions:
REMARK  status: ('A' for Active; 'I' for Inactive)
REMARK    1  A    between atoms: C2_2  and  C3_3 
REMARK    2  A    between atoms: C2_2  and  C9_11 
REMARK    3  A    between atoms: C3_3  and  C4_4 
REMARK    4  A    between atoms: C4_4  and  C5_5 
REMARK    5  A    between atoms: C5_5  and  O1_6 
REMARK    6  A    between atoms: C5_5  and  C6_7 
REMARK    7  A    between atoms: C6_7  and  O2_10 
REMARK    8  A    between atoms: C30_34  and  O5_35 
ROOT
HETATM    1  C9  UNL     1      -1.672  52.650 -10.204  1.00  0.00    -0.001 C 
HETATM    2  C10 UNL     1      -1.152  51.195 -10.358  1.00  0.00     0.007 C 
HETATM    3  C11 UNL     1       0.339  51.182  -9.978  1.00  0.00     0.015 C 
HETATM    4  C12 UNL     1       0.591  52.540  -9.303  1.00  0.00    -0.009 C 
HETATM    5  C13 UNL     1       0.163  52.401  -7.808  1.00  0.00     0.021 C 
HETATM    6  C14 UNL     1       2.008  53.118  -9.307  1.00  0.00    -0.032 C 
HETATM    7  C15 UNL     1       2.194  54.463  -9.195  1.00  0.00     0.002 C 
HETATM    8  C16 UNL     1       0.965  55.310  -8.975  1.00  0.00     0.157 C 
HETATM    9  O3  UNL     1       1.030  56.363  -8.342  1.00  0.00    -0.293 OA
HETATM   10  C17 UNL     1      -0.396  54.838  -9.482  1.00  0.00     0.094 C 
HETATM   11  C18 UNL     1      -0.338  53.471 -10.171  1.00  0.00    -0.022 C 
HETATM   12  C19 UNL     1       0.177  53.672 -11.632  1.00  0.00     0.017 C 
HETATM   13  C20 UNL     1       3.605  55.089  -9.290  1.00  0.00    -0.008 C 
HETATM   14  C21 UNL     1       3.866  55.215 -10.818  1.00  0.00     0.021 C 
HETATM   15  C22 UNL     1       3.846  56.513  -8.711  1.00  0.00     0.022 C 
HETATM   16  C23 UNL     1       4.294  56.500  -7.260  1.00  0.00     0.080 C 
HETATM   17  C24 UNL     1       5.671  55.867  -7.192  1.00  0.00     0.135 C 
HETATM   18  O4  UNL     1       6.535  56.333  -6.449  1.00  0.00    -0.297 OA
HETATM   19  C25 UNL     1       5.932  54.626  -8.073  1.00  0.00     0.018 C 
HETATM   20  C26 UNL     1       6.883  55.022  -9.208  1.00  0.00     0.023 C 
HETATM   21  C27 UNL     1       6.654  53.586  -7.185  1.00  0.00     0.023 C 
HETATM   22  C28 UNL     1       4.553  54.068  -8.546  1.00  0.00     0.016 C 
HETATM   23  C29 UNL     1       4.586  52.737  -9.317  1.00  0.00     0.043 C 
HETATM   24  C30 UNL     1       3.168  52.144  -9.442  1.00  0.00     0.149 C 
ENDROOT
BRANCH   1  25
HETATM   25  C2  UNL     1      -2.786  53.020 -11.233  1.00  0.00    -0.014 C 
HETATM   26  C1  UNL     1      -4.050  53.540 -10.530  1.00  0.00     0.010 C 
BRANCH  25  27
HETATM   27  C3  UNL     1      -3.224  51.821 -12.124  1.00  0.00     0.007 C 
BRANCH  27  28
HETATM   28  C4  UNL     1      -2.597  51.779 -13.528  1.00  0.00     0.035 C 
BRANCH  28  29
HETATM   29  C5  UNL     1      -2.248  50.342 -13.964  1.00  0.00     0.151 C 
BRANCH  29  30
HETATM   30  O1  UNL     1      -3.420  49.537 -13.764  1.00  0.00    -0.393 OA
HETATM   31  H10 UNL     1      -3.953  49.637 -14.578  1.00  0.00     0.210 HD
ENDBRANCH  29  30
BRANCH  29  32
HETATM   32  C6  UNL     1      -1.805  50.212 -15.452  1.00  0.00     0.076 C 
HETATM   33  C7  UNL     1      -1.474  48.771 -15.855  1.00  0.00     0.048 C 
HETATM   34  C8  UNL     1      -2.890  50.762 -16.386  1.00  0.00     0.048 C 
BRANCH  32  35
HETATM   35  O2  UNL     1      -0.643  51.036 -15.654  1.00  0.00    -0.388 OA
HETATM   36  H17 UNL     1       0.131  50.563 -15.302  1.00  0.00     0.210 HD
ENDBRANCH  32  35
ENDBRANCH  29  32
ENDBRANCH  28  29
ENDBRANCH  27  28
ENDBRANCH  25  27
ENDBRANCH   1  25
BRANCH  24  37
HETATM   37  O5  UNL     1       3.034  51.153  -8.425  1.00  0.00    -0.391 OA
HETATM   38  H48 UNL     1       3.115  51.601  -7.565  1.00  0.00     0.210 HD
ENDBRANCH  24  37
TORSDOF 8
ENDMDL
