MODEL 1
REMARK minimizedAffinity -7.08708858
REMARK CNNscore 0.29837355
REMARK CNNaffinity 6.32854271
REMARK  12 active torsions:
REMARK  status: ('A' for Active; 'I' for Inactive)
REMARK    1  A    between atoms: C2_2  and  C3_3 
REMARK    2  A    between atoms: C3_3  and  O1_4 
REMARK    3  A    between atoms: C3_3  and  C5_6 
REMARK    4  A    between atoms: C5_6  and  C7_8 
REMARK    5  A    between atoms: C8_10  and  C10_12 
REMARK    6  A    between atoms: C10_12  and  C11_13 
REMARK    7  A    between atoms: C11_13  and  C13_15 
REMARK    8  A    between atoms: C14_16  and  C15_17 
REMARK    9  A    between atoms: C16_18  and  C18_20 
REMARK   10  A    between atoms: C19_22  and  C20_23 
REMARK   11  A    between atoms: C20_23  and  C21_24 
REMARK   12  A    between atoms: C21_24  and  O5_26 
ROOT
HETATM    1  C13 UNL     1       0.130  52.031 -19.432  1.00  0.00    -0.022 C 
HETATM    2  C14 UNL     1       0.655  52.641 -18.356  1.00  0.00    -0.003 C 
ENDROOT
BRANCH   2   3
HETATM    3  C15 UNL     1       0.755  52.001 -17.062  1.00  0.00     0.005 C 
HETATM    4  C16 UNL     1       1.816  52.006 -16.226  1.00  0.00    -0.055 C 
HETATM    5  C17 UNL     1       3.115  52.732 -16.499  1.00  0.00     0.046 C 
BRANCH   4   6
HETATM    6  C18 UNL     1       1.826  51.297 -14.869  1.00  0.00     0.154 C 
HETATM    7  O3  UNL     1       1.594  49.910 -15.179  1.00  0.00    -0.375 OA
HETATM    8  C19 UNL     1       1.705  49.056 -14.041  1.00  0.00     0.132 C 
HETATM    9  C22 UNL     1       3.179  48.977 -13.624  1.00  0.00     0.033 C 
HETATM   10  C23 UNL     1       3.959  50.244 -13.976  1.00  0.00     0.009 C 
HETATM   11  C24 UNL     1       3.081  51.497 -13.968  1.00  0.00     0.015 C 
HETATM   12  C25 UNL     1       2.683  51.876 -12.531  1.00  0.00     0.012 C 
BRANCH   8  13
HETATM   13  C20 UNL     1       1.170  47.674 -14.412  1.00  0.00     0.141 C 
BRANCH  13  14
HETATM   14  C21 UNL     1      -0.333  47.659 -14.417  1.00  0.00     0.141 C 
HETATM   15  O4  UNL     1      -1.074  46.972 -13.733  1.00  0.00    -0.650 OA
BRANCH  14  16
HETATM   16  O5  UNL     1      -0.844  48.475 -15.362  1.00  0.00    -0.776 OA
HETATM   17  H34 UNL     1      -1.813  48.368 -15.267  1.00  0.00     0.167 HD
ENDBRANCH  14  16
ENDBRANCH  13  14
ENDBRANCH   8  13
ENDBRANCH   4   6
ENDBRANCH   2   3
BRANCH   1  18
HETATM   18  C11 UNL     1      -0.006  52.651 -20.808  1.00  0.00     0.007 C 
HETATM   19  C12 UNL     1       1.062  53.731 -21.030  1.00  0.00     0.014 C 
BRANCH  18  20
HETATM   20  C10 UNL     1       0.037  51.610 -21.948  1.00  0.00     0.048 C 
BRANCH  20  21
HETATM   21  C8  UNL     1      -0.650  52.057 -23.224  1.00  0.00     0.085 A 
HETATM   22  C7  UNL     1      -0.032  51.596 -24.551  1.00  0.00     0.163 A 
HETATM   23  O2  UNL     1       0.152  52.923 -24.039  1.00  0.00    -0.369 OA
HETATM   24  C9  UNL     1      -2.082  52.486 -23.125  1.00  0.00     0.049 C 
BRANCH  22  25
HETATM   25  C5  UNL     1      -0.770  51.528 -25.867  1.00  0.00     0.042 C 
HETATM   26  C6  UNL     1      -1.693  50.307 -25.890  1.00  0.00     0.015 C 
BRANCH  25  27
HETATM   27  C3  UNL     1       0.193  51.545 -27.095  1.00  0.00     0.126 C 
BRANCH  27  28
HETATM   28  C2  UNL     1       1.528  50.810 -26.862  1.00  0.00     0.028 C 
HETATM   29  C1  UNL     1       2.734  51.702 -27.140  1.00  0.00     0.007 C 
ENDBRANCH  27  28
BRANCH  27  30
HETATM   30  O1  UNL     1       0.511  52.883 -27.507  1.00  0.00    -0.390 OA
HETATM   31  C4  UNL     1      -0.625  53.716 -27.695  1.00  0.00     0.202 C 
ENDBRANCH  27  30
ENDBRANCH  25  27
ENDBRANCH  22  25
ENDBRANCH  20  21
ENDBRANCH  18  20
ENDBRANCH   1  18
TORSDOF 12
ENDMDL
