MODEL 1
REMARK minimizedAffinity -8.34597301
REMARK CNNscore 0.541941702
REMARK CNNaffinity 7.56845999
REMARK  12 active torsions:
REMARK  status: ('A' for Active; 'I' for Inactive)
REMARK    1  A    between atoms: O1_2  and  C2_3 
REMARK    2  A    between atoms: C2_3  and  C5_6 
REMARK    3  A    between atoms: C6_7  and  C7_8 
REMARK    4  A    between atoms: C7_8  and  C8_9 
REMARK    5  A    between atoms: C8_9  and  C10_11 
REMARK    6  A    between atoms: C28_30  and  O3_31 
REMARK    7  A    between atoms: O3_31  and  C29_32 
REMARK    8  A    between atoms: C30_34  and  C31_35 
REMARK    9  A    between atoms: C31_35  and  O5_36 
REMARK   10  A    between atoms: C32_37  and  O6_38 
REMARK   11  A    between atoms: C33_39  and  O7_40 
REMARK   12  A    between atoms: C34_41  and  O8_42 
ROOT
HETATM    1  C10 UNL     1      -1.194  51.327 -22.079  1.00  0.00    -0.002 C 
HETATM    2  C11 UNL     1      -1.312  50.760 -23.534  1.00  0.00     0.006 C 
HETATM    3  C12 UNL     1      -2.320  49.593 -23.503  1.00  0.00     0.011 C 
HETATM    4  C13 UNL     1      -3.008  49.722 -22.135  1.00  0.00    -0.029 C 
HETATM    5  C14 UNL     1      -4.094  50.832 -22.318  1.00  0.00     0.016 C 
HETATM    6  C15 UNL     1      -3.634  48.414 -21.570  1.00  0.00     0.028 C 
HETATM    7  C16 UNL     1      -4.724  47.786 -22.403  1.00  0.00    -0.021 C 
HETATM    8  C17 UNL     1      -5.741  47.140 -21.812  1.00  0.00     0.008 C 
HETATM    9  C18 UNL     1      -5.833  46.960 -20.295  1.00  0.00     0.092 C 
HETATM   10  O2  UNL     1      -6.519  48.163 -19.878  1.00  0.00    -0.374 OA
HETATM   11  C19 UNL     1      -5.512  49.227 -19.877  1.00  0.00     0.179 C 
HETATM   12  C20 UNL     1      -4.099  48.564 -20.072  1.00  0.00    -0.004 C 
HETATM   13  C21 UNL     1      -3.033  49.255 -19.189  1.00  0.00     0.014 C 
HETATM   14  C22 UNL     1      -2.328  50.475 -19.821  1.00  0.00     0.011 C 
HETATM   15  C23 UNL     1      -1.783  50.156 -21.228  1.00  0.00    -0.032 C 
HETATM   16  C24 UNL     1      -0.676  49.062 -21.075  1.00  0.00     0.016 C 
HETATM   17  C25 UNL     1      -4.504  47.183 -19.541  1.00  0.00     0.036 C 
HETATM   18  C26 UNL     1      -3.609  45.964 -19.631  1.00  0.00     0.011 C 
HETATM   19  C27 UNL     1      -4.277  44.814 -18.858  1.00  0.00     0.033 C 
HETATM   20  C28 UNL     1      -5.794  45.015 -18.598  1.00  0.00     0.136 C 
HETATM   21  C35 UNL     1      -6.534  45.612 -19.850  1.00  0.00     0.014 C 
HETATM   22  C36 UNL     1      -8.014  45.866 -19.492  1.00  0.00     0.021 C 
HETATM   23  C37 UNL     1      -6.525  44.528 -20.966  1.00  0.00     0.021 C 
ENDROOT
BRANCH  20  24
HETATM   24  O3  UNL     1      -6.404  43.764 -18.236  1.00  0.00    -0.352 OA
BRANCH  24  25
HETATM   25  C29 UNL     1      -5.475  42.703 -17.988  1.00  0.00     0.292 C 
HETATM   26  O4  UNL     1      -5.647  41.635 -18.910  1.00  0.00    -0.348 OA
HETATM   27  C30 UNL     1      -4.733  40.548 -18.688  1.00  0.00     0.179 C 
HETATM   28  C32 UNL     1      -4.953  39.944 -17.295  1.00  0.00     0.180 C 
HETATM   29  C33 UNL     1      -4.838  41.039 -16.232  1.00  0.00     0.183 C 
HETATM   30  C34 UNL     1      -5.758  42.209 -16.557  1.00  0.00     0.204 C 
BRANCH  27  31
HETATM   31  C31 UNL     1      -4.955  39.495 -19.786  1.00  0.00     0.198 C 
BRANCH  31  32
HETATM   32  O5  UNL     1      -5.140  40.120 -21.060  1.00  0.00    -0.398 OA
HETATM   33  H48 UNL     1      -4.315  40.586 -21.277  1.00  0.00     0.209 HD
ENDBRANCH  31  32
ENDBRANCH  27  31
BRANCH  28  34
HETATM   34  O6  UNL     1      -3.986  38.928 -17.021  1.00  0.00    -0.390 OA
HETATM   35  H50 UNL     1      -4.088  38.730 -16.066  1.00  0.00     0.210 HD
ENDBRANCH  28  34
BRANCH  29  36
HETATM   36  O7  UNL     1      -5.165  40.483 -14.948  1.00  0.00    -0.390 OA
HETATM   37  H52 UNL     1      -5.248  41.254 -14.352  1.00  0.00     0.210 HD
ENDBRANCH  29  36
BRANCH  30  38
HETATM   38  O8  UNL     1      -5.548  43.248 -15.588  1.00  0.00    -0.388 OA
HETATM   39  H54 UNL     1      -6.073  44.008 -15.915  1.00  0.00     0.210 HD
ENDBRANCH  30  38
ENDBRANCH  24  25
ENDBRANCH  20  24
BRANCH   1  40
HETATM   40  C8  UNL     1       0.236  51.878 -21.790  1.00  0.00    -0.010 C 
HETATM   41  C9  UNL     1       0.424  52.248 -20.314  1.00  0.00     0.010 C 
BRANCH  40  42
HETATM   42  C7  UNL     1       0.527  53.109 -22.693  1.00  0.00     0.031 C 
BRANCH  42  43
HETATM   43  C6  UNL     1       0.318  52.855 -24.164  1.00  0.00    -0.027 C 
HETATM   44  C5  UNL     1       1.266  52.342 -24.967  1.00  0.00     0.006 C 
BRANCH  44  45
HETATM   45  C2  UNL     1       1.160  52.037 -26.450  1.00  0.00     0.070 C 
HETATM   46  C3  UNL     1       0.164  50.930 -26.834  1.00  0.00     0.050 C 
HETATM   47  C4  UNL     1       2.555  51.613 -26.941  1.00  0.00     0.050 C 
BRANCH  45  48
HETATM   48  O1  UNL     1       0.878  53.265 -27.145  1.00  0.00    -0.382 OA
HETATM   49  C1  UNL     1      -0.383  53.336 -27.801  1.00  0.00     0.202 C 
ENDBRANCH  45  48
ENDBRANCH  44  45
ENDBRANCH  42  43
ENDBRANCH  40  42
ENDBRANCH   1  40
TORSDOF 12
ENDMDL
