MODEL 1
REMARK minimizedAffinity -7.1687212
REMARK CNNscore 0.662477791
REMARK CNNaffinity 6.8387599
REMARK  5 active torsions:
REMARK  status: ('A' for Active; 'I' for Inactive)
REMARK    1  A    between atoms: C2_2  and  C25_28 
REMARK    2  A    between atoms: C3_3  and  C4_4 
REMARK    3  A    between atoms: C4_4  and  C6_6 
REMARK    4  A    between atoms: C20_20  and  O1_21 
REMARK    5  A    between atoms: C25_28  and  C27_30 
ROOT
HETATM    1  C6  UNL     1       1.703  54.757  -9.015  1.00  0.00     0.001 C 
HETATM    2  C7  UNL     1       1.063  54.972  -7.604  1.00  0.00     0.006 C 
HETATM    3  C8  UNL     1      -0.259  54.186  -7.579  1.00  0.00     0.009 C 
HETATM    4  C9  UNL     1      -0.206  53.385  -8.871  1.00  0.00     0.036 C 
HETATM    5  C10 UNL     1       0.478  54.338  -9.895  1.00  0.00    -0.033 C 
HETATM    6  C11 UNL     1      -0.344  55.597 -10.279  1.00  0.00     0.016 C 
HETATM    7  C12 UNL     1       0.785  53.575 -11.207  1.00  0.00     0.010 C 
HETATM    8  C13 UNL     1       0.342  52.108 -11.262  1.00  0.00     0.010 C 
HETATM    9  C14 UNL     1      -0.972  51.722 -10.549  1.00  0.00     0.039 C 
HETATM   10  C15 UNL     1      -1.447  52.679  -9.398  1.00  0.00     0.123 C 
HETATM   11  C16 UNL     1      -2.647  53.559  -9.686  1.00  0.00     0.014 C 
HETATM   12  C17 UNL     1      -3.709  52.900 -10.173  1.00  0.00     0.014 C 
HETATM   13  C18 UNL     1      -3.424  51.440 -10.407  1.00  0.00     0.124 C 
HETATM   14  C19 UNL     1      -4.626  50.631 -10.882  1.00  0.00     0.078 C 
HETATM   15  C20 UNL     1      -4.300  49.133 -10.974  1.00  0.00     0.121 C 
HETATM   16  C21 UNL     1      -2.809  48.809 -11.129  1.00  0.00     0.033 C 
HETATM   17  C22 UNL     1      -2.074  49.857 -11.959  1.00  0.00     0.015 C 
HETATM   18  C23 UNL     1      -2.208  51.310 -11.409  1.00  0.00     0.001 C 
HETATM   19  C24 UNL     1      -2.354  52.231 -12.651  1.00  0.00     0.019 C 
HETATM   20  O2  UNL     1      -3.029  50.888  -9.100  1.00  0.00    -0.223 OA
HETATM   21  O3  UNL     1      -2.001  51.766  -8.416  1.00  0.00    -0.224 OA
ENDROOT
BRANCH   1  22
HETATM   22  C4  UNL     1       2.575  55.971  -9.439  1.00  0.00     0.009 C 
HETATM   23  C5  UNL     1       3.045  55.953 -10.896  1.00  0.00     0.014 C 
BRANCH  22  24
HETATM   24  C3  UNL     1       3.744  56.231  -8.503  1.00  0.00    -0.019 C 
HETATM   25  C2  UNL     1       3.919  57.168  -7.546  1.00  0.00    -0.083 C 
HETATM   26  C1  UNL     1       2.912  58.218  -7.161  1.00  0.00     0.043 C 
BRANCH  25  27
HETATM   27  C25 UNL     1       5.231  57.251  -6.750  1.00  0.00     0.013 C 
HETATM   28  C26 UNL     1       6.180  56.130  -7.207  1.00  0.00     0.015 C 
BRANCH  27  29
HETATM   29  C27 UNL     1       5.022  57.270  -5.205  1.00  0.00    -0.015 C 
HETATM   30  C28 UNL     1       5.669  56.059  -4.521  1.00  0.00     0.010 C 
HETATM   31  C29 UNL     1       5.585  58.552  -4.574  1.00  0.00     0.010 C 
ENDBRANCH  27  29
ENDBRANCH  25  27
ENDBRANCH  22  24
ENDBRANCH   1  22
BRANCH  15  32
HETATM   32  O1  UNL     1      -5.001  48.589 -12.096  1.00  0.00    -0.395 OA
HETATM   33  H28 UNL     1      -5.952  48.641 -11.896  1.00  0.00     0.210 HD
ENDBRANCH  15  32
TORSDOF 5
ENDMDL
