MODEL 1
REMARK minimizedAffinity -7.61557102
REMARK CNNscore 0.54601562
REMARK CNNaffinity 6.43169975
REMARK  13 active torsions:
REMARK  status: ('A' for Active; 'I' for Inactive)
REMARK    1  A    between atoms: C3_3  and  O1_4 
REMARK    2  A    between atoms: N1_14  and  O2_16 
REMARK    3  A    between atoms: O2_16  and  C13_17 
REMARK    4  A    between atoms: C13_17  and  C14_18 
REMARK       I    between atoms: C14_18  and  N2_20 
REMARK    5  A    between atoms: N2_20  and  C15_21 
REMARK    6  A    between atoms: C15_21  and  C16_22 
REMARK    7  A    between atoms: C15_21  and  C21_33 
REMARK       I    between atoms: C16_22  and  N3_24 
REMARK    8  A    between atoms: N3_24  and  C17_25 
REMARK    9  A    between atoms: C17_25  and  C18_26 
REMARK   10  A    between atoms: C17_25  and  C20_30 
REMARK   11  A    between atoms: C18_26  and  C19_27 
REMARK   12  A    between atoms: C19_27  and  O6_29 
REMARK   13  A    between atoms: C20_30  and  O8_32 
ROOT
HETATM    1  C1  UNL     1      -4.374   4.759  13.550  1.00  0.00     0.015 C 
HETATM    2  C2  UNL     1      -3.840   5.684  14.100  1.00  0.00    -0.078 C 
HETATM    3  C3  UNL     1      -3.176   6.801  14.796  1.00  0.00     0.128 C 
HETATM    4  C4  UNL     1      -1.663   6.789  14.549  1.00  0.00     0.052 C 
HETATM    5  C5  UNL     1      -1.240   8.203  14.918  1.00  0.00     0.010 C 
HETATM    6  C6  UNL     1      -2.304   9.063  14.236  1.00  0.00     0.002 C 
HETATM    7  C7  UNL     1      -2.403  10.529  14.701  1.00  0.00    -0.004 C 
HETATM    8  C8  UNL     1      -1.106  11.315  14.467  1.00  0.00     0.010 C 
HETATM    9  C9  UNL     1      -1.098  12.623  15.243  1.00  0.00     0.035 C 
HETATM   10  C10 UNL     1      -1.050  12.257  16.699  1.00  0.00    -0.069 C 
HETATM   11  C11 UNL     1       0.042  12.552  17.430  1.00  0.00     0.030 C 
HETATM   12  C12 UNL     1       0.189  12.080  18.836  1.00  0.00     0.032 C 
HETATM   13  N1  UNL     1       1.097  12.477  19.676  1.00  0.00    -0.271 N 
ATOM     14  H1  UNL     1       1.189  12.126  20.629  1.00  0.00     0.194 HD
HETATM   15  C24 UNL     1      -0.807  11.058  19.352  1.00  0.00     0.060 C 
HETATM   16  C25 UNL     1      -1.654  10.424  18.251  1.00  0.00     0.020 C 
HETATM   17  C26 UNL     1      -2.225  11.447  17.238  1.00  0.00    -0.016 C 
HETATM   18  C27 UNL     1      -3.166  12.431  17.991  1.00  0.00     0.020 C 
HETATM   19  C28 UNL     1      -3.081  10.773  16.082  1.00  0.00     0.002 C 
HETATM   20  C29 UNL     1      -3.936   9.574  16.532  1.00  0.00     0.007 C 
HETATM   21  C30 UNL     1      -4.631   8.902  15.348  1.00  0.00     0.014 C 
HETATM   22  C31 UNL     1      -3.641   8.246  14.352  1.00  0.00     0.003 C 
HETATM   23  C32 UNL     1      -4.316   8.250  12.958  1.00  0.00     0.020 C 
ENDROOT
BRANCH   3  24
HETATM   24  O1  UNL     1      -3.373   6.606  16.197  1.00  0.00    -0.377 OA
HETATM   25  H2  UNL     1      -3.149   5.680  16.390  1.00  0.00     0.211 HD
ENDBRANCH   3  24
BRANCH  13  26
HETATM   26  O2  UNL     1       1.937  13.450  19.110  1.00  0.00    -0.271 OA
BRANCH  26  27
HETATM   27  C13 UNL     1       2.362  14.337  20.134  1.00  0.00     0.303 C 
BRANCH  27  28
HETATM   28  C14 UNL     1       2.561  13.584  21.446  1.00  0.00     0.244 C 
HETATM   29  O3  UNL     1       1.931  13.819  22.474  1.00  0.00    -0.271 OA
HETATM   30  N2  UNL     1       3.517  12.587  21.367  1.00  0.00    -0.346 N 
HETATM   31  H16 UNL     1       4.226  12.701  20.648  1.00  0.00     0.163 HD
BRANCH  30  32
HETATM   32  C15 UNL     1       3.970  11.876  22.567  1.00  0.00     0.180 C 
BRANCH  32  33
HETATM   33  C16 UNL     1       5.428  12.320  22.822  1.00  0.00     0.241 C 
HETATM   34  O4  UNL     1       6.249  11.583  23.369  1.00  0.00    -0.271 OA
HETATM   35  N3  UNL     1       5.736  13.594  22.403  1.00  0.00    -0.344 N 
HETATM   36  H18 UNL     1       4.966  14.224  22.193  1.00  0.00     0.163 HD
BRANCH  35  37
HETATM   37  C17 UNL     1       7.008  14.227  22.760  1.00  0.00     0.192 C 
BRANCH  37  38
HETATM   38  C18 UNL     1       8.096  13.897  21.739  1.00  0.00     0.146 C 
BRANCH  38  39
HETATM   39  C19 UNL     1       9.283  13.236  22.379  1.00  0.00     0.141 C 
HETATM   40  O5  UNL     1       9.354  12.816  23.522  1.00  0.00    -0.650 OA
BRANCH  39  41
HETATM   41  O6  UNL     1      10.345  13.181  21.554  1.00  0.00    -0.776 OA
HETATM   42  H22 UNL     1      11.056  12.764  22.085  1.00  0.00     0.167 HD
ENDBRANCH  39  41
ENDBRANCH  38  39
ENDBRANCH  37  38
BRANCH  37  43
HETATM   43  C20 UNL     1       6.802  15.740  22.927  1.00  0.00     0.164 C 
HETATM   44  O7  UNL     1       6.142  16.301  23.789  1.00  0.00    -0.648 OA
BRANCH  43  45
HETATM   45  O8  UNL     1       7.484  16.475  22.024  1.00  0.00    -0.775 OA
HETATM   46  H23 UNL     1       7.289  17.401  22.284  1.00  0.00     0.167 HD
ENDBRANCH  43  45
ENDBRANCH  37  43
ENDBRANCH  35  37
ENDBRANCH  32  33
BRANCH  32  47
HETATM   47  C21 UNL     1       3.798  10.352  22.381  1.00  0.00     0.009 C 
HETATM   48  C22 UNL     1       2.984  10.006  21.131  1.00  0.00     0.012 C 
HETATM   49  C23 UNL     1       3.207   9.647  23.605  1.00  0.00     0.012 C 
ENDBRANCH  32  47
ENDBRANCH  30  32
ENDBRANCH  27  28
ENDBRANCH  26  27
ENDBRANCH  13  26
TORSDOF 13
ENDMDL
