MODEL 1
REMARK minimizedAffinity -8.75311947
REMARK CNNscore 0.699211419
REMARK CNNaffinity 7.10033083
REMARK  18 active torsions:
REMARK  status: ('A' for Active; 'I' for Inactive)
REMARK    1  A    between atoms: C19_20  and  O2_21 
REMARK    2  A    between atoms: C19_20  and  C20_22 
REMARK    3  A    between atoms: C20_22  and  C21_24 
REMARK    4  A    between atoms: C21_24  and  O4_25 
REMARK    5  A    between atoms: O4_25  and  C22_26 
REMARK    6  A    between atoms: C22_26  and  C23_28 
REMARK    7  A    between atoms: C23_28  and  C24_29 
REMARK    8  A    between atoms: C24_29  and  C25_30 
REMARK       I    between atoms: C25_30  and  N1_32 
REMARK    9  A    between atoms: N1_32  and  C26_33 
REMARK   10  A    between atoms: C26_33  and  C27_34 
REMARK   11  A    between atoms: C27_34  and  C28_35 
REMARK   12  A    between atoms: C28_35  and  C29_36 
REMARK   13  A    between atoms: C29_36  and  C30_37 
REMARK   14  A    between atoms: C30_37  and  C31_38 
REMARK       I    between atoms: C31_38  and  N2_40 
REMARK   15  A    between atoms: N2_40  and  C32_41 
REMARK   16  A    between atoms: C32_41  and  C33_42 
REMARK   17  A    between atoms: C36_45  and  C37_46 
REMARK   18  A    between atoms: C37_46  and  O9_48 
ROOT
HETATM    1  C22 UNL     1      -2.495  50.424 -14.561  1.00  0.00     0.259 C 
HETATM    2  O5  UNL     1      -1.839  49.461 -14.190  1.00  0.00    -0.265 OA
ENDROOT
BRANCH   1   3
HETATM    3  O4  UNL     1      -2.793  50.706 -15.858  1.00  0.00    -0.314 OA
BRANCH   3   4
HETATM    4  C21 UNL     1      -2.858  49.576 -16.724  1.00  0.00     0.260 C 
BRANCH   4   5
HETATM    5  C20 UNL     1      -1.669  49.446 -17.678  1.00  0.00     0.185 C 
HETATM    6  O3  UNL     1      -0.520  49.547 -17.237  1.00  0.00    -0.292 OA
BRANCH   5   7
HETATM    7  C19 UNL     1      -1.974  49.064 -19.149  1.00  0.00     0.128 C 
HETATM    8  C14 UNL     1      -1.809  50.203 -20.210  1.00  0.00    -0.002 C 
HETATM    9  C13 UNL     1      -0.367  50.568 -20.606  1.00  0.00     0.013 C 
HETATM   10  C15 UNL     1      -2.559  51.499 -19.777  1.00  0.00     0.019 C 
HETATM   11  C16 UNL     1      -2.480  49.506 -21.431  1.00  0.00     0.002 C 
HETATM   12  C12 UNL     1      -0.317  51.435 -21.880  1.00  0.00     0.007 C 
HETATM   13  C11 UNL     1      -1.052  50.764 -23.065  1.00  0.00     0.002 C 
HETATM   14  C2  UNL     1      -1.006  51.540 -24.424  1.00  0.00    -0.016 C 
HETATM   15  C10 UNL     1      -2.520  50.394 -22.682  1.00  0.00    -0.004 C 
HETATM   16  C1  UNL     1      -1.884  52.815 -24.388  1.00  0.00     0.020 C 
HETATM   17  C3  UNL     1       0.448  51.942 -24.782  1.00  0.00     0.022 C 
HETATM   18  C7  UNL     1      -1.525  50.592 -25.510  1.00  0.00    -0.068 C 
HETATM   19  C4  UNL     1       0.593  52.496 -26.198  1.00  0.00     0.084 C 
HETATM   20  C5  UNL     1      -0.062  51.608 -27.227  1.00  0.00     0.149 C 
HETATM   21  O1  UNL     1       0.233  51.668 -28.419  1.00  0.00    -0.293 OA
HETATM   22  C6  UNL     1      -1.099  50.646 -26.784  1.00  0.00     0.053 C 
HETATM   23  C8  UNL     1      -2.455  49.474 -25.092  1.00  0.00     0.035 C 
HETATM   24  C9  UNL     1      -3.304  49.783 -23.861  1.00  0.00     0.010 C 
HETATM   25  C17 UNL     1      -3.789  48.983 -20.847  1.00  0.00     0.009 C 
HETATM   26  C18 UNL     1      -3.440  48.614 -19.388  1.00  0.00     0.047 C 
BRANCH   7  27
HETATM   27  O2  UNL     1      -1.098  47.975 -19.491  1.00  0.00    -0.381 OA
HETATM   28  H27 UNL     1      -1.471  47.144 -19.150  1.00  0.00     0.211 HD
ENDBRANCH   7  27
ENDBRANCH   5   7
ENDBRANCH   4   5
ENDBRANCH   3   4
ENDBRANCH   1   3
BRANCH   1  29
HETATM   29  C23 UNL     1      -2.976  51.505 -13.628  1.00  0.00     0.120 C 
BRANCH  29  30
HETATM   30  C24 UNL     1      -3.289  51.006 -12.222  1.00  0.00     0.112 C 
BRANCH  30  31
HETATM   31  C25 UNL     1      -3.562  52.161 -11.282  1.00  0.00     0.217 C 
HETATM   32  O6  UNL     1      -4.519  52.194 -10.517  1.00  0.00    -0.274 OA
HETATM   33  N1  UNL     1      -2.618  53.162 -11.366  1.00  0.00    -0.361 N 
HETATM   34  H34 UNL     1      -1.860  53.090 -12.031  1.00  0.00     0.162 HD
BRANCH  33  35
HETATM   35  C26 UNL     1      -2.708  54.359 -10.554  1.00  0.00     0.122 C 
BRANCH  35  36
HETATM   36  C27 UNL     1      -1.386  55.122 -10.460  1.00  0.00     0.020 C 
BRANCH  36  37
HETATM   37  C28 UNL     1      -0.661  54.985  -9.118  1.00  0.00     0.002 C 
BRANCH  37  38
HETATM   38  C29 UNL     1       0.522  54.012  -9.132  1.00  0.00     0.009 C 
BRANCH  38  39
HETATM   39  C30 UNL     1       0.898  53.591 -10.554  1.00  0.00     0.103 C 
BRANCH  39  40
HETATM   40  C31 UNL     1       2.365  53.824 -10.878  1.00  0.00     0.217 C 
HETATM   41  O7  UNL     1       3.107  52.954 -11.324  1.00  0.00    -0.274 OA
HETATM   42  N2  UNL     1       2.767  55.119 -10.635  1.00  0.00    -0.357 N 
HETATM   43  H45 UNL     1       2.065  55.817 -10.431  1.00  0.00     0.162 HD
BRANCH  42  44
HETATM   44  C32 UNL     1       4.102  55.578 -10.944  1.00  0.00     0.161 C 
BRANCH  44  45
HETATM   45  C33 UNL     1       4.967  55.584  -9.709  1.00  0.00    -0.040 A 
HETATM   46  C34 UNL     1       4.621  56.360  -8.595  1.00  0.00     0.010 A 
HETATM   47  C35 UNL     1       5.440  56.375  -7.463  1.00  0.00     0.019 A 
HETATM   48  C36 UNL     1       6.619  55.618  -7.432  1.00  0.00     0.037 A 
HETATM   49  C38 UNL     1       6.976  54.851  -8.547  1.00  0.00     0.019 A 
HETATM   50  C39 UNL     1       6.156  54.839  -9.679  1.00  0.00     0.010 A 
BRANCH  48  51
HETATM   51  C37 UNL     1       7.456  55.670  -6.210  1.00  0.00     0.176 C 
HETATM   52  O8  UNL     1       8.116  56.624  -5.838  1.00  0.00    -0.646 OA
BRANCH  51  53
HETATM   53  O9  UNL     1       7.429  54.523  -5.508  1.00  0.00    -0.773 OA
HETATM   54  H50 UNL     1       8.014  54.701  -4.743  1.00  0.00     0.167 HD
ENDBRANCH  51  53
ENDBRANCH  48  51
ENDBRANCH  44  45
ENDBRANCH  42  44
ENDBRANCH  39  40
ENDBRANCH  38  39
ENDBRANCH  37  38
ENDBRANCH  36  37
ENDBRANCH  35  36
ENDBRANCH  33  35
ENDBRANCH  30  31
ENDBRANCH  29  30
ENDBRANCH   1  29
TORSDOF 18
ENDMDL
