MODEL 1
REMARK minimizedAffinity -10.7210035
REMARK  5 active torsions:
REMARK  status: ('A' for Active; 'I' for Inactive)
REMARK    1  A    between atoms: N1_1  and  C1_2 
REMARK    2  A    between atoms: C4_5  and  C5_6 
REMARK       I    between atoms: C5_6  and  N2_8 
REMARK    3  A    between atoms: C10_13  and  S1_14 
REMARK    4  A    between atoms: S1_14  and  N3_17 
REMARK    5  A    between atoms: C12_19  and  C13_20 
ROOT
HETATM    1  C5  UNL     1      -0.084  50.855 -18.796  1.00  0.00     0.258 C 
HETATM    2  O1  UNL     1      -0.670  49.781 -18.894  1.00  0.00    -0.267 OA
HETATM    3  N2  UNL     1       0.185  51.753 -19.818  1.00  0.00    -0.313 N 
HETATM    4  C6  UNL     1       0.934  53.016 -19.687  1.00  0.00     0.137 A 
HETATM    5  C7  UNL     1       1.019  53.653 -21.080  1.00  0.00     0.061 A 
HETATM    6  C8  UNL     1       0.301  52.654 -21.928  1.00  0.00    -0.028 A 
HETATM    7  C9  UNL     1       0.084  52.720 -23.297  1.00  0.00     0.034 A 
HETATM    8  C10 UNL     1      -0.624  51.673 -23.897  1.00  0.00     0.080 A 
HETATM    9  C20 UNL     1      -1.126  50.603 -23.135  1.00  0.00     0.027 A 
HETATM   10  C21 UNL     1      -0.892  50.554 -21.756  1.00  0.00     0.032 A 
HETATM   11  C22 UNL     1      -0.175  51.583 -21.167  1.00  0.00     0.043 A 
ENDROOT
BRANCH   8  12
HETATM   12  S1  UNL     1      -0.926  51.700 -25.654  1.00  0.00     0.268 S 
HETATM   13  O2  UNL     1       0.025  50.787 -26.262  1.00  0.00    -0.200 OA
HETATM   14  O3  UNL     1      -0.979  53.085 -26.063  1.00  0.00    -0.200 OA
BRANCH  12  15
HETATM   15  N3  UNL     1      -2.424  50.989 -25.751  1.00  0.00    -0.221 N 
HETATM   16  C11 UNL     1      -2.543  49.609 -26.261  1.00  0.00     0.176 C 
HETATM   17  C12 UNL     1      -3.916  49.193 -25.690  1.00  0.00     0.138 C 
HETATM   18  N4  UNL     1      -4.512  50.425 -25.219  1.00  0.00    -0.332 N 
HETATM   19  C19 UNL     1      -3.573  51.411 -25.080  1.00  0.00     0.332 C 
HETATM   20  H18 UNL     1      -5.333  50.461 -24.633  1.00  0.00     0.165 HD
HETATM   21  O4  UNL     1      -3.725  52.427 -24.432  1.00  0.00    -0.246 OA
BRANCH  17  22
HETATM   22  C13 UNL     1      -4.801  48.456 -26.660  1.00  0.00    -0.034 A 
HETATM   23  C14 UNL     1      -4.421  48.331 -28.006  1.00  0.00     0.009 A 
HETATM   24  C15 UNL     1      -5.241  47.662 -28.918  1.00  0.00     0.001 A 
HETATM   25  C16 UNL     1      -6.451  47.113 -28.497  1.00  0.00     0.000 A 
HETATM   26  C17 UNL     1      -6.844  47.231 -27.166  1.00  0.00     0.001 A 
HETATM   27  C18 UNL     1      -6.025  47.899 -26.252  1.00  0.00     0.009 A 
ENDBRANCH  17  22
ENDBRANCH  12  15
ENDBRANCH   8  12
BRANCH   1  28
HETATM   28  C4  UNL     1       0.405  51.228 -17.454  1.00  0.00     0.032 A 
HETATM   29  C3  UNL     1       0.008  50.473 -16.350  1.00  0.00     0.019 A 
HETATM   30  C2  UNL     1       0.492  50.808 -15.083  1.00  0.00     0.024 A 
HETATM   31  C1  UNL     1       1.322  51.921 -14.906  1.00  0.00     0.005 A 
HETATM   32  C24 UNL     1       1.739  52.643 -16.031  1.00  0.00     0.024 A 
HETATM   33  C23 UNL     1       1.264  52.316 -17.304  1.00  0.00     0.019 A 
BRANCH  31  34
HETATM   34  N1  UNL     1       1.901  52.174 -13.657  1.00  0.00    -0.303 NA
HETATM   35  H1  UNL     1       2.182  53.142 -13.528  1.00  0.00     0.124 HD
HETATM   36  H2  UNL     1       1.348  51.837 -12.874  1.00  0.00     0.124 HD
ENDBRANCH  31  34
ENDBRANCH   1  28
TORSDOF 5
ENDMDL
