MODEL 1
REMARK minimizedAffinity -9.89779091
REMARK CNNscore 0.75814563
REMARK CNNaffinity 7.52394247
REMARK  12 active torsions:
REMARK  status: ('A' for Active; 'I' for Inactive)
REMARK    1  A    between atoms: C2_2  and  C3_3 
REMARK    2  A    between atoms: C2_2  and  C26_31 
REMARK    3  A    between atoms: C3_3  and  C4_4 
REMARK    4  A    between atoms: C4_4  and  C5_5 
REMARK    5  A    between atoms: C5_5  and  C7_7 
REMARK    6  A    between atoms: C8_8  and  O1_9 
REMARK    7  A    between atoms: C9_10  and  O2_11 
REMARK    8  A    between atoms: C20_22  and  O3_23 
REMARK    9  A    between atoms: C23_26  and  O4_27 
REMARK   10  A    between atoms: C25_29  and  O5_30 
REMARK   11  A    between atoms: C26_31  and  C28_33 
REMARK   12  A    between atoms: C28_33  and  O6_34 
ROOT
HETATM    1  C7  UNL     1      -1.374  48.454 -19.728  1.00  0.00     0.029 C 
HETATM    2  C8  UNL     1      -2.551  47.484 -20.104  1.00  0.00     0.152 C 
HETATM    3  C9  UNL     1      -3.000  47.861 -21.540  1.00  0.00     0.155 C 
HETATM    4  C10 UNL     1      -1.961  48.877 -21.997  1.00  0.00     0.060 C 
HETATM    5  C11 UNL     1      -1.596  49.668 -20.697  1.00  0.00    -0.029 C 
HETATM    6  C12 UNL     1      -2.683  50.615 -20.133  1.00  0.00     0.016 C 
HETATM    7  C13 UNL     1      -0.341  50.499 -21.041  1.00  0.00     0.011 C 
HETATM    8  C14 UNL     1      -0.553  51.406 -22.271  1.00  0.00     0.009 C 
HETATM    9  C15 UNL     1      -1.007  50.623 -23.526  1.00  0.00     0.029 C 
HETATM   10  C16 UNL     1      -1.123  51.490 -24.840  1.00  0.00    -0.031 C 
HETATM   11  C17 UNL     1      -2.170  52.622 -24.700  1.00  0.00     0.016 C 
HETATM   12  C18 UNL     1       0.251  52.150 -25.172  1.00  0.00     0.012 C 
HETATM   13  C19 UNL     1       0.306  52.811 -26.552  1.00  0.00     0.032 C 
HETATM   14  C20 UNL     1      -0.146  51.881 -27.672  1.00  0.00     0.118 C 
HETATM   15  C21 UNL     1      -1.494  51.223 -27.376  1.00  0.00     0.039 C 
HETATM   16  C22 UNL     1      -1.466  50.515 -26.013  1.00  0.00     0.025 C 
HETATM   17  C23 UNL     1      -2.741  49.695 -25.746  1.00  0.00     0.126 C 
HETATM   18  C24 UNL     1      -2.613  48.881 -24.453  1.00  0.00     0.071 C 
HETATM   19  C25 UNL     1      -2.271  49.749 -23.232  1.00  0.00     0.071 C 
ENDROOT
BRANCH   1  20
HETATM   20  C5  UNL     1      -1.218  48.697 -18.197  1.00  0.00    -0.011 C 
HETATM   21  C6  UNL     1      -2.406  48.165 -17.385  1.00  0.00     0.010 C 
BRANCH  20  22
HETATM   22  C4  UNL     1      -1.058  50.218 -17.908  1.00  0.00     0.009 C 
BRANCH  22  23
HETATM   23  C3  UNL     1       0.307  50.569 -17.288  1.00  0.00     0.034 C 
BRANCH  23  24
HETATM   24  C2  UNL     1       0.805  51.999 -17.473  1.00  0.00    -0.083 C 
HETATM   25  C1  UNL     1       0.617  52.701 -18.606  1.00  0.00     0.015 C 
BRANCH  24  26
HETATM   26  C26 UNL     1       1.520  52.575 -16.240  1.00  0.00     0.033 C 
HETATM   27  C27 UNL     1       3.055  52.525 -16.299  1.00  0.00     0.017 C 
BRANCH  26  28
HETATM   28  C28 UNL     1       1.018  51.945 -14.919  1.00  0.00     0.172 C 
BRANCH  28  29
HETATM   29  O6  UNL     1       0.703  52.914 -13.924  1.00  0.00    -0.400 OA
HETATM   30  H48 UNL     1       0.121  53.580 -14.325  1.00  0.00     0.209 HD
ENDBRANCH  28  29
ENDBRANCH  26  28
ENDBRANCH  24  26
ENDBRANCH  23  24
ENDBRANCH  22  23
ENDBRANCH  20  22
ENDBRANCH   1  20
BRANCH   2  31
HETATM   31  O1  UNL     1      -3.686  47.586 -19.243  1.00  0.00    -0.393 OA
HETATM   32  H13 UNL     1      -3.475  47.128 -18.411  1.00  0.00     0.210 HD
ENDBRANCH   2  31
BRANCH   3  33
HETATM   33  O2  UNL     1      -4.313  48.420 -21.560  1.00  0.00    -0.392 OA
HETATM   34  H15 UNL     1      -4.687  48.191 -20.678  1.00  0.00     0.210 HD
ENDBRANCH   3  33
BRANCH  19  35
HETATM   35  O5  UNL     1      -3.405  50.565 -22.970  1.00  0.00    -0.389 OA
HETATM   36  H41 UNL     1      -4.084  49.980 -22.564  1.00  0.00     0.210 HD
ENDBRANCH  19  35
BRANCH  17  37
HETATM   37  O4  UNL     1      -2.964  48.782 -26.825  1.00  0.00    -0.395 OA
HETATM   38  H38 UNL     1      -2.209  48.170 -26.867  1.00  0.00     0.210 HD
ENDBRANCH  17  37
BRANCH  14  39
HETATM   39  O3  UNL     1      -0.226  52.629 -28.880  1.00  0.00    -0.396 OA
HETATM   40  H33 UNL     1      -0.574  52.039 -29.570  1.00  0.00     0.210 HD
ENDBRANCH  14  39
TORSDOF 12
ENDMDL
