MODEL 1
REMARK minimizedAffinity -9.68737221
REMARK  6 active torsions:
REMARK  status: ('A' for Active; 'I' for Inactive)
REMARK    1  A    between atoms: C2_2  and  C30_32 
REMARK    2  A    between atoms: C3_3  and  C4_4 
REMARK    3  A    between atoms: C4_4  and  C5_5 
REMARK    4  A    between atoms: C5_5  and  C6_6 
REMARK    5  A    between atoms: C6_6  and  C8_8 
REMARK    6  A    between atoms: C30_32  and  O4_34 
ROOT
HETATM    1  C8  UNL     1       0.830  51.698 -20.579  1.00  0.00    -0.002 C 
HETATM    2  C9  UNL     1      -0.153  50.600 -20.987  1.00  0.00     0.007 C 
HETATM    3  C10 UNL     1      -0.452  49.903 -19.672  1.00  0.00     0.015 C 
HETATM    4  C11 UNL     1      -0.735  51.051 -18.675  1.00  0.00    -0.005 C 
HETATM    5  C12 UNL     1      -2.222  51.480 -18.839  1.00  0.00     0.021 C 
HETATM    6  C13 UNL     1      -0.547  50.606 -17.208  1.00  0.00    -0.000 C 
HETATM    7  C14 UNL     1       0.218  51.266 -16.304  1.00  0.00    -0.060 C 
HETATM    8  C15 UNL     1       1.063  52.438 -16.761  1.00  0.00     0.036 C 
HETATM    9  C16 UNL     1       1.487  52.298 -18.212  1.00  0.00     0.015 C 
HETATM   10  C17 UNL     1       0.282  52.197 -19.175  1.00  0.00    -0.028 C 
HETATM   11  C18 UNL     1      -0.397  53.586 -19.243  1.00  0.00     0.016 C 
HETATM   12  C19 UNL     1       0.320  50.911 -14.804  1.00  0.00    -0.014 C 
HETATM   13  C20 UNL     1       1.697  50.227 -14.575  1.00  0.00     0.020 C 
HETATM   14  C21 UNL     1       0.267  52.205 -13.937  1.00  0.00     0.021 C 
HETATM   15  C22 UNL     1      -0.288  51.967 -12.544  1.00  0.00     0.080 C 
HETATM   16  C23 UNL     1      -1.734  51.545 -12.654  1.00  0.00     0.135 C 
HETATM   17  O1  UNL     1      -2.562  51.957 -11.840  1.00  0.00    -0.297 OA
HETATM   18  C24 UNL     1      -2.112  50.582 -13.796  1.00  0.00     0.018 C 
HETATM   19  C25 UNL     1      -3.054  49.518 -13.189  1.00  0.00     0.023 C 
HETATM   20  C26 UNL     1      -2.908  51.384 -14.836  1.00  0.00     0.023 C 
HETATM   21  C27 UNL     1      -0.797  49.910 -14.336  1.00  0.00     0.020 C 
HETATM   22  C28 UNL     1      -0.997  48.818 -15.385  1.00  0.00     0.090 C 
HETATM   23  C29 UNL     1      -1.271  49.362 -16.760  1.00  0.00     0.157 C 
HETATM   24  O2  UNL     1      -2.029  48.749 -17.508  1.00  0.00    -0.293 OA
ENDROOT
BRANCH   1  25
HETATM   25  C6  UNL     1       1.112  52.738 -21.701  1.00  0.00    -0.014 C 
HETATM   26  C7  UNL     1       1.291  54.159 -21.135  1.00  0.00     0.010 C 
BRANCH  25  27
HETATM   27  C5  UNL     1       0.044  52.764 -22.824  1.00  0.00     0.008 C 
BRANCH  27  28
HETATM   28  C4  UNL     1       0.475  52.146 -24.159  1.00  0.00     0.028 C 
BRANCH  28  29
HETATM   29  C3  UNL     1       0.187  53.082 -25.303  1.00  0.00    -0.013 C 
HETATM   30  C2  UNL     1       0.056  52.761 -26.607  1.00  0.00     0.008 C 
HETATM   31  C1  UNL     1       0.123  51.375 -27.177  1.00  0.00     0.055 C 
BRANCH  30  32
HETATM   32  C30 UNL     1      -0.195  53.814 -27.628  1.00  0.00     0.171 C 
HETATM   33  O3  UNL     1      -0.380  54.996 -27.388  1.00  0.00    -0.646 OA
BRANCH  32  34
HETATM   34  O4  UNL     1      -0.210  53.362 -28.893  1.00  0.00    -0.773 OA
HETATM   35  H44 UNL     1      -0.385  54.169 -29.419  1.00  0.00     0.167 HD
ENDBRANCH  32  34
ENDBRANCH  30  32
ENDBRANCH  28  29
ENDBRANCH  27  28
ENDBRANCH  25  27
ENDBRANCH   1  25
TORSDOF 6
ENDMDL
