MODEL 1
REMARK minimizedAffinity -7.34390211
REMARK CNNscore 0.809906662
REMARK CNNaffinity 6.87320852
REMARK  7 active torsions:
REMARK  status: ('A' for Active; 'I' for Inactive)
REMARK    1  A    between atoms: C2_2  and  C30_33 
REMARK    2  A    between atoms: C3_3  and  C4_4 
REMARK    3  A    between atoms: C4_4  and  C5_5 
REMARK    4  A    between atoms: C5_5  and  C6_6 
REMARK    5  A    between atoms: C6_6  and  C8_8 
REMARK    6  A    between atoms: C19_20  and  O2_21 
REMARK    7  A    between atoms: C30_33  and  O5_35 
ROOT
HETATM    1  C8  UNL     1       4.580  55.073  -8.615  1.00  0.00    -0.002 C 
HETATM    2  C9  UNL     1       4.398  56.511  -8.056  1.00  0.00     0.007 C 
HETATM    3  C10 UNL     1       2.874  56.728  -7.890  1.00  0.00     0.018 C 
HETATM    4  C11 UNL     1       2.226  55.541  -8.629  1.00  0.00     0.025 C 
HETATM    5  C12 UNL     1       2.130  55.968 -10.111  1.00  0.00     0.024 C 
HETATM    6  C13 UNL     1       0.830  55.116  -8.169  1.00  0.00     0.147 C 
HETATM    7  O1  UNL     1       0.163  55.879  -7.464  1.00  0.00    -0.296 OA
HETATM    8  C14 UNL     1       0.268  53.712  -8.622  1.00  0.00     0.055 C 
HETATM    9  C15 UNL     1       1.446  52.665  -8.752  1.00  0.00     0.021 C 
HETATM   10  C16 UNL     1       2.852  53.176  -9.115  1.00  0.00     0.012 C 
HETATM   11  C17 UNL     1       3.221  54.400  -8.274  1.00  0.00    -0.026 C 
HETATM   12  C18 UNL     1       3.188  54.004  -6.766  1.00  0.00     0.016 C 
HETATM   13  C19 UNL     1      -0.657  53.157  -7.474  1.00  0.00     0.135 C 
HETATM   14  C20 UNL     1      -1.517  52.117  -8.185  1.00  0.00     0.039 C 
HETATM   15  C21 UNL     1      -2.031  52.899  -9.405  1.00  0.00     0.012 C 
HETATM   16  C22 UNL     1      -2.809  52.067 -10.464  1.00  0.00     0.018 C 
HETATM   17  C23 UNL     1      -3.808  51.115  -9.772  1.00  0.00     0.023 C 
HETATM   18  C24 UNL     1      -3.617  52.973 -11.414  1.00  0.00     0.023 C 
HETATM   19  C25 UNL     1      -1.875  51.245 -11.342  1.00  0.00     0.135 C 
HETATM   20  O3  UNL     1      -2.259  50.232 -11.932  1.00  0.00    -0.297 OA
HETATM   21  C26 UNL     1      -0.444  51.688 -11.483  1.00  0.00     0.080 C 
HETATM   22  C27 UNL     1      -0.226  53.176 -11.219  1.00  0.00     0.018 C 
HETATM   23  C28 UNL     1      -0.776  53.736  -9.878  1.00  0.00    -0.022 C 
HETATM   24  C29 UNL     1      -1.281  55.180 -10.148  1.00  0.00     0.017 C 
ENDROOT
BRANCH  13  25
HETATM   25  O2  UNL     1      -1.569  54.104  -6.920  1.00  0.00    -0.394 OA
HETATM   26  H29 UNL     1      -1.086  54.945  -6.764  1.00  0.00     0.210 HD
ENDBRANCH  13  25
BRANCH   1  27
HETATM   27  C6  UNL     1       5.899  54.331  -8.247  1.00  0.00    -0.014 C 
HETATM   28  C7  UNL     1       6.309  53.435  -9.433  1.00  0.00     0.010 C 
BRANCH  27  29
HETATM   29  C5  UNL     1       7.090  55.235  -7.855  1.00  0.00     0.008 C 
BRANCH  29  30
HETATM   30  C4  UNL     1       7.436  55.174  -6.361  1.00  0.00     0.028 C 
BRANCH  30  31
HETATM   31  C3  UNL     1       7.902  56.514  -5.856  1.00  0.00    -0.013 C 
HETATM   32  C2  UNL     1       9.035  56.806  -5.187  1.00  0.00     0.008 C 
HETATM   33  C1  UNL     1       9.328  58.208  -4.733  1.00  0.00     0.055 C 
BRANCH  32  34
HETATM   34  C30 UNL     1      10.070  55.779  -4.904  1.00  0.00     0.171 C 
HETATM   35  O4  UNL     1       9.997  54.845  -4.127  1.00  0.00    -0.646 OA
BRANCH  34  36
HETATM   36  O5  UNL     1      11.176  55.968  -5.646  1.00  0.00    -0.773 OA
HETATM   37  H46 UNL     1      11.762  55.234  -5.368  1.00  0.00     0.167 HD
ENDBRANCH  34  36
ENDBRANCH  32  34
ENDBRANCH  30  31
ENDBRANCH  29  30
ENDBRANCH  27  29
ENDBRANCH   1  27
TORSDOF 7
ENDMDL
