MODEL 1
REMARK minimizedAffinity -9.32831478
REMARK CNNscore 0.598855197
REMARK CNNaffinity 7.65920591
REMARK  12 active torsions:
REMARK  status: ('A' for Active; 'I' for Inactive)
REMARK    1  A    between atoms: C2_2  and  C3_3 
REMARK    2  A    between atoms: C2_2  and  C9_10 
REMARK    3  A    between atoms: C3_3  and  C4_4 
REMARK    4  A    between atoms: C5_5  and  C6_6 
REMARK    5  A    between atoms: C6_6  and  O1_9 
REMARK    6  A    between atoms: C27_29  and  O3_30 
REMARK    7  A    between atoms: O3_30  and  C28_31 
REMARK    8  A    between atoms: C29_33  and  C30_34 
REMARK    9  A    between atoms: C30_34  and  O5_35 
REMARK   10  A    between atoms: C31_36  and  O6_37 
REMARK   11  A    between atoms: C32_38  and  O7_39 
REMARK   12  A    between atoms: C33_40  and  O8_41 
ROOT
HETATM    1  C9  UNL     1      -0.705  51.128 -20.289  1.00  0.00    -0.002 C 
HETATM    2  C10 UNL     1      -1.603  52.079 -19.450  1.00  0.00     0.006 C 
HETATM    3  C11 UNL     1      -2.969  51.356 -19.271  1.00  0.00     0.011 C 
HETATM    4  C12 UNL     1      -2.715  49.906 -19.727  1.00  0.00    -0.029 C 
HETATM    5  C13 UNL     1      -2.041  49.194 -18.488  1.00  0.00     0.016 C 
HETATM    6  C14 UNL     1      -3.934  48.994 -20.106  1.00  0.00     0.028 C 
HETATM    7  C15 UNL     1      -5.339  49.539 -20.196  1.00  0.00    -0.021 C 
HETATM    8  C16 UNL     1      -6.312  48.733 -20.667  1.00  0.00     0.008 C 
HETATM    9  C17 UNL     1      -5.983  47.381 -21.312  1.00  0.00     0.092 C 
HETATM   10  O2  UNL     1      -5.437  46.518 -20.276  1.00  0.00    -0.374 OA
HETATM   11  C18 UNL     1      -3.988  46.521 -20.420  1.00  0.00     0.179 C 
HETATM   12  C19 UNL     1      -3.655  47.842 -21.178  1.00  0.00    -0.004 C 
HETATM   13  C20 UNL     1      -2.258  47.815 -21.850  1.00  0.00     0.014 C 
HETATM   14  C21 UNL     1      -1.175  48.791 -21.363  1.00  0.00     0.011 C 
HETATM   15  C22 UNL     1      -1.736  50.146 -20.923  1.00  0.00    -0.032 C 
HETATM   16  C23 UNL     1      -2.425  50.830 -22.116  1.00  0.00     0.016 C 
HETATM   17  C24 UNL     1      -4.793  47.632 -22.235  1.00  0.00     0.036 C 
HETATM   18  C25 UNL     1      -5.113  48.627 -23.349  1.00  0.00     0.011 C 
HETATM   19  C26 UNL     1      -6.591  48.625 -23.756  1.00  0.00     0.033 C 
HETATM   20  C27 UNL     1      -7.346  47.309 -23.523  1.00  0.00     0.136 C 
HETATM   21  C34 UNL     1      -7.150  46.681 -22.087  1.00  0.00     0.014 C 
HETATM   22  C35 UNL     1      -8.450  46.695 -21.239  1.00  0.00     0.021 C 
HETATM   23  C36 UNL     1      -6.832  45.169 -22.297  1.00  0.00     0.021 C 
ENDROOT
BRANCH  20  24
HETATM   24  O3  UNL     1      -8.753  47.489 -23.753  1.00  0.00    -0.352 OA
BRANCH  24  25
HETATM   25  C28 UNL     1      -9.420  46.408 -24.408  1.00  0.00     0.292 C 
HETATM   26  O4  UNL     1      -8.562  45.749 -25.345  1.00  0.00    -0.348 OA
HETATM   27  C29 UNL     1      -8.425  46.350 -26.642  1.00  0.00     0.179 C 
HETATM   28  C31 UNL     1      -9.798  46.458 -27.338  1.00  0.00     0.180 C 
HETATM   29  C32 UNL     1     -10.962  46.243 -26.371  1.00  0.00     0.183 C 
HETATM   30  C33 UNL     1     -10.705  46.963 -25.061  1.00  0.00     0.204 C 
BRANCH  27  31
HETATM   31  C30 UNL     1      -7.682  47.703 -26.616  1.00  0.00     0.198 C 
BRANCH  31  32
HETATM   32  O5  UNL     1      -7.932  48.419 -27.824  1.00  0.00    -0.398 OA
HETATM   33  H46 UNL     1      -7.133  48.938 -28.023  1.00  0.00     0.209 HD
ENDBRANCH  31  32
ENDBRANCH  27  31
BRANCH  28  34
HETATM   34  O6  UNL     1      -9.936  45.471 -28.380  1.00  0.00    -0.390 OA
HETATM   35  H48 UNL     1      -9.669  44.609 -28.010  1.00  0.00     0.210 HD
ENDBRANCH  28  34
BRANCH  29  36
HETATM   36  O7  UNL     1     -12.170  46.743 -26.966  1.00  0.00    -0.390 OA
HETATM   37  H50 UNL     1     -12.215  46.330 -27.850  1.00  0.00     0.210 HD
ENDBRANCH  29  36
BRANCH  30  38
HETATM   38  O8  UNL     1     -11.845  46.786 -24.204  1.00  0.00    -0.388 OA
HETATM   39  H52 UNL     1     -12.615  47.046 -24.752  1.00  0.00     0.210 HD
ENDBRANCH  30  38
ENDBRANCH  24  25
ENDBRANCH  20  24
BRANCH   1  40
HETATM   40  C2  UNL     1       0.409  51.797 -21.151  1.00  0.00    -0.010 C 
HETATM   41  C1  UNL     1       1.296  52.646 -20.212  1.00  0.00     0.010 C 
BRANCH  40  42
HETATM   42  C3  UNL     1      -0.038  52.667 -22.352  1.00  0.00     0.031 C 
BRANCH  42  43
HETATM   43  C4  UNL     1       0.166  52.045 -23.714  1.00  0.00    -0.027 C 
HETATM   44  C5  UNL     1       0.456  52.734 -24.831  1.00  0.00     0.006 C 
BRANCH  44  45
HETATM   45  C6  UNL     1       0.658  52.190 -26.222  1.00  0.00     0.068 C 
HETATM   46  C7  UNL     1       2.084  51.719 -26.527  1.00  0.00     0.050 C 
HETATM   47  C8  UNL     1      -0.344  51.058 -26.469  1.00  0.00     0.050 C 
BRANCH  45  48
HETATM   48  O1  UNL     1       0.345  53.262 -27.113  1.00  0.00    -0.387 OA
HETATM   49  H15 UNL     1       0.513  52.950 -28.020  1.00  0.00     0.211 HD
ENDBRANCH  45  48
ENDBRANCH  44  45
ENDBRANCH  42  43
ENDBRANCH  40  42
ENDBRANCH   1  40
TORSDOF 12
ENDMDL
