MODEL 1
REMARK minimizedAffinity -8.07347393
REMARK CNNscore 0.49248296
REMARK CNNaffinity 6.39088011
REMARK  7 active torsions:
REMARK  status: ('A' for Active; 'I' for Inactive)
REMARK    1  A    between atoms: C2_2  and  C4_4 
REMARK    2  A    between atoms: C7_7  and  O1_9 
REMARK    3  A    between atoms: C9_10  and  C10_11 
REMARK    4  A    between atoms: C11_12  and  C12_13 
REMARK    5  A    between atoms: C14_15  and  C15_16 
REMARK    6  A    between atoms: C24_26  and  C26_28 
REMARK    7  A    between atoms: C29_32  and  O4_34 
ROOT
HETATM    1  C15 UNL     1       7.390   7.594  13.264  1.00  0.00     0.149 C 
HETATM    2  C16 UNL     1       7.238   8.149  14.686  1.00  0.00     0.054 C 
HETATM    3  C17 UNL     1       8.015   9.500  14.706  1.00  0.00     0.050 C 
HETATM    4  C18 UNL     1       9.053   9.148  13.622  1.00  0.00     0.272 C 
HETATM    5  O2  UNL     1       9.853  10.185  13.106  1.00  0.00    -0.360 OA
HETATM    6  C19 UNL     1       9.191  11.091  12.248  1.00  0.00     0.171 C 
HETATM    7  C20 UNL     1       8.734  12.304  13.025  1.00  0.00     0.027 C 
HETATM    8  C21 UNL     1       7.598  12.090  14.020  1.00  0.00     0.012 C 
HETATM    9  C22 UNL     1       7.039  10.663  14.267  1.00  0.00     0.032 C 
HETATM   10  C23 UNL     1       5.896  10.821  15.304  1.00  0.00    -0.066 C 
HETATM   11  C24 UNL     1       4.578  10.823  14.963  1.00  0.00    -0.021 C 
HETATM   12  C25 UNL     1       4.038  10.684  13.561  1.00  0.00     0.052 C 
HETATM   13  C27 UNL     1       6.427  11.017  16.719  1.00  0.00     0.038 C 
HETATM   14  C28 UNL     1       7.474   9.988  17.142  1.00  0.00     0.042 C 
HETATM   15  C29 UNL     1       8.618   9.806  16.119  1.00  0.00     0.067 C 
HETATM   16  C30 UNL     1       9.591   8.746  16.670  1.00  0.00     0.047 C 
HETATM   17  O5  UNL     1       8.331   8.446  12.592  1.00  0.00    -0.351 OA
ENDROOT
BRANCH   1  18
HETATM   18  C14 UNL     1       6.109   7.604  12.486  1.00  0.00     0.011 C 
HETATM   19  C12 UNL     1       5.705   6.762  11.508  1.00  0.00    -0.064 C 
HETATM   20  C13 UNL     1       6.527   5.612  10.985  1.00  0.00     0.048 C 
BRANCH  19  21
HETATM   21  C11 UNL     1       4.369   6.964  10.947  1.00  0.00     0.003 C 
HETATM   22  C10 UNL     1       3.462   6.013  10.670  1.00  0.00    -0.018 C 
BRANCH  22  23
HETATM   23  C9  UNL     1       2.061   6.247  10.136  1.00  0.00     0.050 C 
HETATM   24  C4  UNL     1       1.759   7.639   9.510  1.00  0.00     0.024 C 
HETATM   25  C5  UNL     1       0.230   7.736   9.593  1.00  0.00     0.013 C 
HETATM   26  C6  UNL     1      -0.053   7.214  10.997  1.00  0.00     0.039 C 
HETATM   27  C7  UNL     1       0.895   6.007  11.157  1.00  0.00     0.062 C 
HETATM   28  C8  UNL     1       1.291   5.823  12.623  1.00  0.00     0.046 C 
BRANCH  24  29
HETATM   29  C2  UNL     1       2.330   7.850   8.117  1.00  0.00    -0.088 C 
HETATM   30  C1  UNL     1       3.162   8.878   7.857  1.00  0.00     0.014 C 
HETATM   31  C3  UNL     1       1.941   6.887   7.024  1.00  0.00     0.043 C 
ENDBRANCH  24  29
BRANCH  27  32
HETATM   32  O1  UNL     1       0.170   4.835  10.751  1.00  0.00    -0.390 OA
HETATM   33  H14 UNL     1       0.760   4.069  10.865  1.00  0.00     0.210 HD
ENDBRANCH  27  32
ENDBRANCH  22  23
ENDBRANCH  19  21
ENDBRANCH   1  18
BRANCH  15  34
HETATM   34  O4  UNL     1       9.369  11.025  16.070  1.00  0.00    -0.389 OA
HETATM   35  H44 UNL     1       9.760  11.186  16.947  1.00  0.00     0.210 HD
ENDBRANCH  15  34
BRANCH  11  36
HETATM   36  C26 UNL     1       3.469  10.954  15.966  1.00  0.00     0.265 C 
HETATM   37  O3  UNL     1       3.112  10.026  16.685  1.00  0.00    -0.302 OA
ENDBRANCH  11  36
TORSDOF 7
ENDMDL
