MODEL 1
REMARK minimizedAffinity -7.43821621
REMARK CNNscore 0.629013717
REMARK CNNaffinity 6.81770658
REMARK  4 active torsions:
REMARK  status: ('A' for Active; 'I' for Inactive)
REMARK    1  A    between atoms: C2_2  and  C3_3 
REMARK    2  A    between atoms: C2_2  and  C9_9 
REMARK    3  A    between atoms: C3_3  and  C4_4 
REMARK    4  A    between atoms: C4_4  and  C5_5 
ROOT
HETATM    1  C9  UNL     1       2.759  54.724  -9.657  1.00  0.00     0.018 C 
HETATM    2  C10 UNL     1       2.236  55.340  -8.341  1.00  0.00     0.010 C 
HETATM    3  C11 UNL     1       0.721  55.068  -8.288  1.00  0.00     0.011 C 
HETATM    4  C12 UNL     1       0.450  53.955  -9.333  1.00  0.00    -0.032 C 
HETATM    5  C13 UNL     1       0.832  52.611  -8.647  1.00  0.00     0.016 C 
HETATM    6  C14 UNL     1       1.458  54.388 -10.421  1.00  0.00     0.002 C 
HETATM    7  C15 UNL     1       1.597  53.385 -11.549  1.00  0.00     0.006 C 
HETATM    8  C16 UNL     1       0.342  52.551 -11.804  1.00  0.00     0.006 C 
HETATM    9  C17 UNL     1      -1.035  53.135 -11.363  1.00  0.00     0.003 C 
HETATM   10  C18 UNL     1      -2.208  52.063 -11.491  1.00  0.00    -0.035 C 
HETATM   11  C19 UNL     1      -3.569  52.802 -11.639  1.00  0.00     0.016 C 
HETATM   12  C20 UNL     1      -2.034  51.178 -12.755  1.00  0.00     0.017 C 
HETATM   13  C21 UNL     1      -3.160  50.175 -12.960  1.00  0.00     0.080 C 
HETATM   14  C22 UNL     1      -3.735  49.653 -11.662  1.00  0.00     0.135 C 
HETATM   15  O1  UNL     1      -4.846  49.116 -11.670  1.00  0.00    -0.297 OA
HETATM   16  C23 UNL     1      -2.875  49.731 -10.392  1.00  0.00     0.017 C 
HETATM   17  C24 UNL     1      -1.813  48.611 -10.523  1.00  0.00     0.023 C 
HETATM   18  C25 UNL     1      -3.755  49.353  -9.183  1.00  0.00     0.023 C 
HETATM   19  C26 UNL     1      -2.155  51.135 -10.241  1.00  0.00     0.009 C 
HETATM   20  C27 UNL     1      -2.474  51.912  -8.955  1.00  0.00     0.007 C 
HETATM   21  C28 UNL     1      -2.047  53.381  -8.913  1.00  0.00     0.011 C 
HETATM   22  C29 UNL     1      -1.016  53.910  -9.961  1.00  0.00    -0.032 C 
HETATM   23  C30 UNL     1      -1.517  55.366 -10.280  1.00  0.00     0.016 C 
ENDROOT
BRANCH   1  24
HETATM   24  C2  UNL     1       3.815  55.579 -10.345  1.00  0.00    -0.084 C 
HETATM   25  C1  UNL     1       3.551  56.668 -11.090  1.00  0.00     0.014 C 
BRANCH  24  26
HETATM   26  C3  UNL     1       5.255  55.102 -10.217  1.00  0.00     0.037 C 
BRANCH  26  27
HETATM   27  C4  UNL     1       5.480  54.154  -9.033  1.00  0.00     0.031 C 
BRANCH  27  28
HETATM   28  C5  UNL     1       6.647  54.595  -8.191  1.00  0.00    -0.024 C 
HETATM   29  C6  UNL     1       6.652  55.547  -7.237  1.00  0.00    -0.091 C 
HETATM   30  C7  UNL     1       5.470  56.402  -6.868  1.00  0.00     0.042 C 
HETATM   31  C8  UNL     1       7.905  55.847  -6.454  1.00  0.00     0.042 C 
ENDBRANCH  27  28
ENDBRANCH  26  27
ENDBRANCH  24  26
ENDBRANCH   1  24
TORSDOF 4
ENDMDL
