MODEL 1
REMARK minimizedAffinity -5.93253469
REMARK CNNscore 0.227857172
REMARK CNNaffinity 5.85475016
REMARK  10 active torsions:
REMARK  status: ('A' for Active; 'I' for Inactive)
REMARK    1  A    between atoms: C16_18  and  C17_19 
REMARK    2  A    between atoms: C26_30  and  C27_31 
REMARK    3  A    between atoms: C27_31  and  O1_33 
REMARK    4  A    between atoms: C30_35  and  C31_36 
REMARK    5  A    between atoms: C31_36  and  O3_38 
REMARK    6  A    between atoms: C37_44  and  O4_45 
REMARK    7  A    between atoms: C41_49  and  C42_50 
REMARK    8  A    between atoms: C41_49  and  C43_52 
REMARK    9  A    between atoms: C42_50  and  O5_51 
REMARK   10  A    between atoms: C43_52  and  O7_54 
ROOT
HETATM    1  C17 UNL     1       2.223  54.866  -8.127  1.00  0.00     0.013 A 
HETATM    2  C18 UNL     1       1.961  55.395  -6.840  1.00  0.00     0.053 A 
HETATM    3  N3  UNL     1       1.307  54.819  -5.775  1.00  0.00    -0.357 N 
HETATM    4  C19 UNL     1       1.267  55.672  -4.697  1.00  0.00     0.038 A 
HETATM    5  C20 UNL     1       1.911  56.838  -5.074  1.00  0.00    -0.020 A 
HETATM    6  C21 UNL     1       2.130  58.031  -4.202  1.00  0.00     0.072 C 
HETATM    7  C22 UNL     1       0.849  58.565  -3.543  1.00  0.00     0.277 C 
HETATM    8  N4  UNL     1       0.012  57.646  -2.759  1.00  0.00     0.096 N 
HETATM    9  C23 UNL     1      -1.298  57.387  -3.377  1.00  0.00     0.277 C 
HETATM   10  C24 UNL     1      -1.804  55.994  -2.961  1.00  0.00     0.016 C 
HETATM   11  C25 UNL     1      -1.679  55.859  -1.434  1.00  0.00     0.015 C 
HETATM   12  C26 UNL     1      -0.185  55.918  -1.044  1.00  0.00     0.049 C 
HETATM   13  C29 UNL     1       0.649  56.391  -2.287  1.00  0.00     0.253 C 
HETATM   14  C30 UNL     1       0.597  55.257  -3.388  1.00  0.00     0.122 C 
HETATM   15  C33 UNL     1      -0.913  54.930  -3.632  1.00  0.00     0.035 C 
HETATM   16  C34 UNL     1       2.346  56.667  -6.429  1.00  0.00    -0.000 A 
HETATM   17  C35 UNL     1       3.040  57.479  -7.344  1.00  0.00     0.017 A 
HETATM   18  C36 UNL     1       3.325  56.995  -8.626  1.00  0.00     0.038 A 
HETATM   19  C37 UNL     1       2.934  55.711  -9.016  1.00  0.00     0.077 A 
HETATM   20  H19 UNL     1       0.898  53.893  -5.795  1.00  0.00     0.166 HD
ENDROOT
BRANCH   1  21
HETATM   21  C16 UNL     1       1.797  53.433  -8.542  1.00  0.00     0.075 C 
HETATM   22  C9  UNL     1       3.068  52.618  -8.954  1.00  0.00     0.025 A 
HETATM   23  C8  UNL     1       3.533  51.744  -9.961  1.00  0.00    -0.020 A 
HETATM   24  N2  UNL     1       4.113  52.696  -8.035  1.00  0.00    -0.358 N 
HETATM   25  C7  UNL     1       2.872  51.156 -11.208  1.00  0.00     0.079 C 
HETATM   26  C15 UNL     1       4.893  51.390  -9.634  1.00  0.00    -0.001 A 
HETATM   27  C6  UNL     1       1.433  51.615 -11.345  1.00  0.00     0.248 C 
HETATM   28  N1  UNL     1       0.685  51.678 -12.622  1.00  0.00     0.094 N 
HETATM   29  C41 UNL     1       0.434  51.114 -10.246  1.00  0.00     0.107 C 
HETATM   30  C4  UNL     1      -0.302  52.795 -12.523  1.00  0.00     0.306 C 
HETATM   31  C5  UNL     1       1.525  51.854 -13.803  1.00  0.00     0.310 C 
HETATM   32  C3  UNL     1      -1.102  52.830 -11.205  1.00  0.00    -0.051 C 
HETATM   33  C2  UNL     1      -2.408  53.162 -11.226  1.00  0.00    -0.026 C 
HETATM   34  C40 UNL     1      -0.333  52.418  -9.921  1.00  0.00     0.039 C 
HETATM   35  C1  UNL     1      -3.349  53.263 -10.068  1.00  0.00     0.036 C 
HETATM   36  C39 UNL     1       0.565  53.626  -9.473  1.00  0.00     0.026 C 
HETATM   37  C10 UNL     1       5.219  52.003  -8.436  1.00  0.00     0.043 A 
HETATM   38  C14 UNL     1       5.871  50.585 -10.258  1.00  0.00     0.014 A 
HETATM   39  C11 UNL     1       6.470  51.869  -7.822  1.00  0.00     0.030 A 
HETATM   40  C12 UNL     1       7.423  51.073  -8.461  1.00  0.00     0.002 A 
HETATM   41  C13 UNL     1       7.130  50.436  -9.663  1.00  0.00     0.001 A 
HETATM   42  H13 UNL     1       4.068  53.241  -7.184  1.00  0.00     0.166 HD
BRANCH  29  43
HETATM   43  C42 UNL     1      -0.528  49.973 -10.746  1.00  0.00     0.186 C 
BRANCH  43  44
HETATM   44  O5  UNL     1      -1.405  50.394 -11.803  1.00  0.00    -0.399 OA
HETATM   45  H51 UNL     1      -1.896  51.184 -11.518  1.00  0.00     0.209 HD
ENDBRANCH  43  44
ENDBRANCH  29  43
BRANCH  29  46
HETATM   46  C43 UNL     1       0.976  50.461  -8.966  1.00  0.00     0.272 C 
HETATM   47  O6  UNL     1       1.911  49.667  -8.945  1.00  0.00    -0.264 OA
BRANCH  46  48
HETATM   48  O7  UNL     1       0.432  50.996  -7.838  1.00  0.00    -0.326 OA
HETATM   49  C44 UNL     1       0.859  50.384  -6.619  1.00  0.00     0.213 C 
ENDBRANCH  46  48
ENDBRANCH  29  46
ENDBRANCH   1  21
BRANCH  19  50
HETATM   50  O4  UNL     1       3.186  55.185 -10.259  1.00  0.00    -0.355 OA
HETATM   51  C38 UNL     1       4.408  55.540 -10.892  1.00  0.00     0.210 C 
ENDBRANCH  19  50
BRANCH  14  52
HETATM   52  C31 UNL     1       1.346  53.985  -2.927  1.00  0.00     0.275 C 
HETATM   53  O2  UNL     1       2.380  54.004  -2.265  1.00  0.00    -0.264 OA
BRANCH  52  54
HETATM   54  O3  UNL     1       0.677  52.846  -3.262  1.00  0.00    -0.326 OA
HETATM   55  C32 UNL     1       0.690  51.835  -2.253  1.00  0.00     0.213 C 
ENDBRANCH  52  54
ENDBRANCH  14  52
BRANCH  12  56
HETATM   56  C27 UNL     1       0.057  56.684   0.274  1.00  0.00     0.120 C 
HETATM   57  C28 UNL     1       0.319  55.857   1.526  1.00  0.00     0.040 C 
BRANCH  56  58
HETATM   58  O1  UNL     1      -1.059  57.544   0.523  1.00  0.00    -0.396 OA
HETATM   59  H34 UNL     1      -1.776  57.000   0.891  1.00  0.00     0.210 HD
ENDBRANCH  56  58
ENDBRANCH  12  56
TORSDOF 10
ENDMDL
