MODEL 1
REMARK minimizedAffinity -6.43334007
REMARK CNNscore 0.524225056
REMARK CNNaffinity 6.59966803
REMARK  10 active torsions:
REMARK  status: ('A' for Active; 'I' for Inactive)
REMARK    1  A    between atoms: C14_14  and  C15_15 
REMARK    2  A    between atoms: C15_15  and  C17_17 
REMARK    3  A    between atoms: C17_17  and  C18_18 
REMARK    4  A    between atoms: C18_18  and  C19_19 
REMARK    5  A    between atoms: C20_20  and  C22_22 
REMARK    6  A    between atoms: C22_22  and  O2_24 
REMARK    7  A    between atoms: C27_29  and  C28_30 
REMARK    8  A    between atoms: C28_30  and  C29_31 
REMARK    9  A    between atoms: C29_31  and  C30_32 
REMARK   10  A    between atoms: C30_32  and  O4_34 
ROOT
HETATM    1  C1  UNL     1       0.231   8.331   8.738  1.00  0.00     0.043 C 
HETATM    2  C2  UNL     1       1.554   8.093   9.442  1.00  0.00    -0.085 C 
HETATM    3  C3  UNL     1       2.701   8.196   8.469  1.00  0.00     0.043 C 
HETATM    4  C4  UNL     1       1.640   7.873  10.783  1.00  0.00    -0.073 C 
HETATM    5  C5  UNL     1       0.413   8.133  11.648  1.00  0.00     0.035 C 
HETATM    6  C6  UNL     1       0.731   8.378  13.123  1.00  0.00     0.010 C 
HETATM    7  C7  UNL     1       1.998   9.244  13.362  1.00  0.00     0.003 C 
HETATM    8  C8  UNL     1       3.278   8.761  12.511  1.00  0.00    -0.032 C 
HETATM    9  C9  UNL     1       3.742   9.870  11.526  1.00  0.00     0.016 C 
HETATM   10  C10 UNL     1       4.508   8.463  13.423  1.00  0.00     0.011 C 
HETATM   11  C11 UNL     1       4.802   9.437  14.585  1.00  0.00     0.011 C 
HETATM   12  C12 UNL     1       3.596  10.227  15.126  1.00  0.00    -0.032 C 
HETATM   13  C13 UNL     1       3.551  11.641  14.458  1.00  0.00     0.016 C 
HETATM   14  C14 UNL     1       3.564  10.455  16.680  1.00  0.00    -0.002 C 
HETATM   15  C23 UNL     1       2.043  10.686  16.946  1.00  0.00     0.006 C 
HETATM   16  C24 UNL     1       1.275  10.227  15.691  1.00  0.00     0.011 C 
HETATM   17  C25 UNL     1       2.294   9.385  14.897  1.00  0.00    -0.032 C 
HETATM   18  C26 UNL     1       2.297   7.974  15.581  1.00  0.00     0.016 C 
HETATM   19  C27 UNL     1       2.860   7.490  11.652  1.00  0.00     0.024 C 
ENDROOT
BRANCH  14  20
HETATM   20  C15 UNL     1       4.464  11.561  17.316  1.00  0.00    -0.014 C 
HETATM   21  C16 UNL     1       5.892  11.047  17.544  1.00  0.00     0.010 C 
BRANCH  20  22
HETATM   22  C17 UNL     1       3.867  12.054  18.666  1.00  0.00     0.008 C 
BRANCH  22  23
HETATM   23  C18 UNL     1       4.654  11.598  19.906  1.00  0.00     0.028 C 
BRANCH  23  24
HETATM   24  C19 UNL     1       3.977  10.526  20.711  1.00  0.00    -0.013 C 
HETATM   25  C20 UNL     1       3.352  10.653  21.899  1.00  0.00     0.008 C 
HETATM   26  C21 UNL     1       3.239  11.910  22.707  1.00  0.00     0.055 C 
BRANCH  25  27
HETATM   27  C22 UNL     1       2.745   9.418  22.460  1.00  0.00     0.171 C 
HETATM   28  O1  UNL     1       2.017   8.632  21.878  1.00  0.00    -0.646 OA
BRANCH  27  29
HETATM   29  O2  UNL     1       3.077   9.224  23.747  1.00  0.00    -0.773 OA
HETATM   30  H35 UNL     1       2.607   8.396  23.980  1.00  0.00     0.167 HD
ENDBRANCH  27  29
ENDBRANCH  25  27
ENDBRANCH  23  24
ENDBRANCH  22  23
ENDBRANCH  20  22
ENDBRANCH  14  20
BRANCH  19  31
HETATM   31  C28 UNL     1       4.007   6.679  10.987  1.00  0.00     0.020 C 
BRANCH  31  32
HETATM   32  C29 UNL     1       5.303   6.676  11.808  1.00  0.00     0.110 C 
BRANCH  32  33
HETATM   33  C30 UNL     1       6.536   6.295  11.043  1.00  0.00     0.139 C 
HETATM   34  O3  UNL     1       6.894   5.162  10.768  1.00  0.00    -0.650 OA
BRANCH  33  35
HETATM   35  O4  UNL     1       7.280   7.358  10.684  1.00  0.00    -0.776 OA
HETATM   36  H48 UNL     1       8.020   6.959  10.181  1.00  0.00     0.167 HD
ENDBRANCH  33  35
ENDBRANCH  32  33
ENDBRANCH  31  32
ENDBRANCH  19  31
TORSDOF 10
ENDMDL
