MODEL 1
REMARK minimizedAffinity -8.26161003
REMARK CNNscore 0.281410336
REMARK CNNaffinity 7.0022521
REMARK  12 active torsions:
REMARK  status: ('A' for Active; 'I' for Inactive)
REMARK    1  A    between atoms: C3_3  and  O1_4 
REMARK    2  A    between atoms: N1_14  and  O2_16 
REMARK    3  A    between atoms: O2_16  and  C13_17 
REMARK    4  A    between atoms: C13_17  and  C14_18 
REMARK       I    between atoms: C14_18  and  N2_20 
REMARK    5  A    between atoms: N2_20  and  C15_21 
REMARK    6  A    between atoms: C15_21  and  C16_22 
REMARK    7  A    between atoms: C15_21  and  C27_38 
REMARK       I    between atoms: C16_22  and  N3_24 
REMARK    8  A    between atoms: N3_24  and  C17_25 
REMARK    9  A    between atoms: C17_25  and  C18_26 
REMARK   10  A    between atoms: C17_25  and  C20_30 
REMARK   11  A    between atoms: C18_26  and  C19_27 
REMARK   12  A    between atoms: C19_27  and  O6_29 
ROOT
HETATM    1  C1  UNL     1       4.586   6.308  11.003  1.00  0.00     0.015 C 
HETATM    2  C2  UNL     1       3.479   6.656  10.690  1.00  0.00    -0.078 C 
HETATM    3  C3  UNL     1       2.126   7.068  10.254  1.00  0.00     0.128 C 
HETATM    4  C4  UNL     1       1.292   5.807   9.962  1.00  0.00     0.052 C 
HETATM    5  C5  UNL     1       0.514   5.504  11.254  1.00  0.00     0.010 C 
HETATM    6  C6  UNL     1       0.842   6.635  12.251  1.00  0.00     0.002 C 
HETATM    7  C7  UNL     1      -0.274   6.996  13.250  1.00  0.00    -0.004 C 
HETATM    8  C8  UNL     1      -0.740   5.761  14.036  1.00  0.00     0.010 C 
HETATM    9  C9  UNL     1      -1.723   6.147  15.133  1.00  0.00     0.035 C 
HETATM   10  C10 UNL     1      -2.914   6.911  14.599  1.00  0.00    -0.069 C 
HETATM   11  C11 UNL     1      -4.152   6.587  15.019  1.00  0.00     0.030 C 
HETATM   12  C12 UNL     1      -5.348   7.384  14.631  1.00  0.00     0.032 C 
HETATM   13  N1  UNL     1      -6.559   7.205  15.053  1.00  0.00    -0.271 N 
ATOM     14  H1  UNL     1      -7.351   7.768  14.745  1.00  0.00     0.194 HD
HETATM   15  C30 UNL     1      -5.137   8.569  13.715  1.00  0.00     0.060 C 
HETATM   16  C31 UNL     1      -3.903   8.415  12.848  1.00  0.00     0.020 C 
HETATM   17  C32 UNL     1      -2.615   8.076  13.646  1.00  0.00    -0.016 C 
HETATM   18  C33 UNL     1      -2.207   9.284  14.522  1.00  0.00     0.020 C 
HETATM   19  C34 UNL     1      -1.484   7.703  12.601  1.00  0.00     0.002 C 
HETATM   20  C35 UNL     1      -0.997   8.913  11.772  1.00  0.00     0.007 C 
HETATM   21  C36 UNL     1       0.063   8.528  10.740  1.00  0.00     0.014 C 
HETATM   22  C37 UNL     1       1.297   7.808  11.353  1.00  0.00     0.003 C 
HETATM   23  C38 UNL     1       2.130   8.841  12.138  1.00  0.00     0.020 C 
ENDROOT
BRANCH   3  24
HETATM   24  O1  UNL     1       2.285   7.876   9.097  1.00  0.00    -0.377 OA
HETATM   25  H2  UNL     1       1.491   7.789   8.544  1.00  0.00     0.211 HD
ENDBRANCH   3  24
BRANCH  13  26
HETATM   26  O2  UNL     1      -6.668   6.156  15.979  1.00  0.00    -0.271 OA
BRANCH  26  27
HETATM   27  C13 UNL     1      -8.038   5.765  16.039  1.00  0.00     0.303 C 
BRANCH  27  28
HETATM   28  C14 UNL     1      -8.966   6.786  15.386  1.00  0.00     0.244 C 
HETATM   29  O3  UNL     1      -9.253   6.733  14.189  1.00  0.00    -0.271 OA
HETATM   30  N2  UNL     1      -9.487   7.742  16.234  1.00  0.00    -0.346 N 
HETATM   31  H16 UNL     1      -9.438   7.495  17.222  1.00  0.00     0.163 HD
BRANCH  30  32
HETATM   32  C15 UNL     1     -10.649   8.517  15.818  1.00  0.00     0.180 C 
BRANCH  32  33
HETATM   33  C16 UNL     1     -11.116   9.348  17.033  1.00  0.00     0.241 C 
HETATM   34  O4  UNL     1     -10.428  10.250  17.515  1.00  0.00    -0.271 OA
HETATM   35  N3  UNL     1     -12.373   9.015  17.504  1.00  0.00    -0.354 N 
HETATM   36  H18 UNL     1     -12.799   8.162  17.159  1.00  0.00     0.162 HD
BRANCH  35  37
HETATM   37  C17 UNL     1     -12.942   9.626  18.715  1.00  0.00     0.098 C 
BRANCH  37  38
HETATM   38  C18 UNL     1     -14.467   9.474  18.627  1.00  0.00     0.135 C 
BRANCH  38  39
HETATM   39  C19 UNL     1     -15.174  10.797  18.521  1.00  0.00     0.141 C 
HETATM   40  O5  UNL     1     -15.338  11.620  19.406  1.00  0.00    -0.650 OA
BRANCH  39  41
HETATM   41  O6  UNL     1     -15.593  11.051  17.261  1.00  0.00    -0.776 OA
HETATM   42  H22 UNL     1     -15.989  11.948  17.320  1.00  0.00     0.167 HD
ENDBRANCH  39  41
ENDBRANCH  38  39
ENDBRANCH  37  38
BRANCH  37  43
HETATM   43  C20 UNL     1     -12.335   8.936  19.979  1.00  0.00     0.014 C 
HETATM   44  C21 UNL     1     -13.398   8.402  20.957  1.00  0.00     0.033 C 
HETATM   45  C22 UNL     1     -12.823   8.266  22.360  1.00  0.00     0.169 C 
HETATM   46  O7  UNL     1     -12.455   9.524  22.920  1.00  0.00    -0.381 OA
HETATM   47  C23 UNL     1     -11.804  10.444  22.036  1.00  0.00     0.054 C 
HETATM   48  C24 UNL     1     -12.779  11.591  21.743  1.00  0.00     0.045 C 
HETATM   49  C25 UNL     1     -10.611  11.022  22.815  1.00  0.00     0.045 C 
HETATM   50  C26 UNL     1     -11.291   9.788  20.740  1.00  0.00     0.044 C 
ENDBRANCH  37  43
ENDBRANCH  35  37
ENDBRANCH  32  33
BRANCH  32  51
HETATM   51  C27 UNL     1     -10.389   9.416  14.591  1.00  0.00     0.009 C 
HETATM   52  C28 UNL     1     -10.424  10.896  14.991  1.00  0.00     0.012 C 
HETATM   53  C29 UNL     1     -11.356   9.175  13.428  1.00  0.00     0.012 C 
ENDBRANCH  32  51
ENDBRANCH  30  32
ENDBRANCH  27  28
ENDBRANCH  26  27
ENDBRANCH  13  26
TORSDOF 12
ENDMDL
