MODEL 1
REMARK minimizedAffinity -7.02395678
REMARK CNNscore 0.472053051
REMARK CNNaffinity 6.03251791
REMARK  6 active torsions:
REMARK  status: ('A' for Active; 'I' for Inactive)
REMARK    1  A    between atoms: C2_2  and  C4_4 
REMARK    2  A    between atoms: C11_11  and  C12_12 
REMARK    3  A    between atoms: C12_12  and  O2_14 
REMARK    4  A    between atoms: C21_23  and  O3_24 
REMARK    5  A    between atoms: C22_25  and  C24_27 
REMARK    6  A    between atoms: C24_27  and  O4_28 
ROOT
HETATM    1  C4  UNL     1      -7.164  47.427 -33.239  1.00  0.00     0.018 C 
HETATM    2  C5  UNL     1      -5.665  47.312 -33.635  1.00  0.00     0.010 C 
HETATM    3  C6  UNL     1      -4.896  46.908 -32.366  1.00  0.00     0.010 C 
HETATM    4  C7  UNL     1      -5.830  47.303 -31.216  1.00  0.00    -0.039 C 
HETATM    5  C8  UNL     1      -5.676  48.827 -30.970  1.00  0.00     0.015 C 
HETATM    6  C9  UNL     1      -5.586  46.543 -29.907  1.00  0.00     0.011 C 
HETATM    7  C10 UNL     1      -6.733  46.769 -28.899  1.00  0.00     0.022 C 
HETATM    8  C11 UNL     1      -8.167  46.437 -29.460  1.00  0.00     0.057 C 
HETATM    9  C13 UNL     1      -8.347  47.210 -30.834  1.00  0.00     0.011 C 
HETATM   10  C14 UNL     1      -9.748  47.060 -31.436  1.00  0.00     0.007 C 
HETATM   11  C15 UNL     1     -10.862  47.397 -30.447  1.00  0.00     0.006 C 
HETATM   12  C16 UNL     1     -10.749  46.598 -29.131  1.00  0.00     0.003 C 
HETATM   13  C17 UNL     1     -12.042  46.676 -28.196  1.00  0.00    -0.035 C 
HETATM   14  C18 UNL     1     -12.391  48.133 -27.809  1.00  0.00     0.016 C 
HETATM   15  C19 UNL     1     -13.263  46.096 -28.977  1.00  0.00     0.012 C 
HETATM   16  C20 UNL     1     -14.497  45.836 -28.117  1.00  0.00     0.033 C 
HETATM   17  C21 UNL     1     -14.201  44.939 -26.922  1.00  0.00     0.128 C 
HETATM   18  C22 UNL     1     -13.022  45.438 -26.030  1.00  0.00     0.007 C 
HETATM   19  C23 UNL     1     -13.453  46.646 -25.169  1.00  0.00     0.020 C 
HETATM   20  C25 UNL     1     -11.783  45.735 -26.958  1.00  0.00     0.007 C 
HETATM   21  C26 UNL     1     -10.498  46.143 -26.212  1.00  0.00     0.007 C 
HETATM   22  C27 UNL     1      -9.275  46.015 -27.124  1.00  0.00     0.011 C 
HETATM   23  C28 UNL     1      -9.350  46.852 -28.433  1.00  0.00    -0.022 C 
HETATM   24  C29 UNL     1      -9.178  48.342 -28.018  1.00  0.00     0.017 C 
HETATM   25  C30 UNL     1      -7.193  46.855 -31.802  1.00  0.00     0.007 C 
ENDROOT
BRANCH   8  26
HETATM   26  C12 UNL     1      -8.223  44.903 -29.719  1.00  0.00     0.149 C 
HETATM   27  O1  UNL     1      -9.026  44.294 -30.407  1.00  0.00    -0.649 OA
BRANCH  26  28
HETATM   28  O2  UNL     1      -7.281  44.191 -29.070  1.00  0.00    -0.776 OA
HETATM   29  H18 UNL     1      -7.464  43.267 -29.341  1.00  0.00     0.167 HD
ENDBRANCH  26  28
ENDBRANCH   8  26
BRANCH   1  30
HETATM   30  C2  UNL     1      -8.040  46.815 -34.320  1.00  0.00    -0.089 C 
HETATM   31  C1  UNL     1      -8.486  47.459 -35.410  1.00  0.00     0.014 C 
HETATM   32  C3  UNL     1      -8.419  45.374 -34.086  1.00  0.00     0.043 C 
ENDBRANCH   1  30
BRANCH  18  33
HETATM   33  C24 UNL     1     -12.655  44.288 -25.037  1.00  0.00     0.176 C 
BRANCH  33  34
HETATM   34  O4  UNL     1     -12.864  44.678 -23.679  1.00  0.00    -0.400 OA
HETATM   35  H39 UNL     1     -12.552  43.941 -23.123  1.00  0.00     0.209 HD
ENDBRANCH  33  34
ENDBRANCH  18  33
BRANCH  17  36
HETATM   36  O3  UNL     1     -15.413  44.808 -26.179  1.00  0.00    -0.395 OA
HETATM   37  H33 UNL     1     -15.168  44.343 -25.350  1.00  0.00     0.210 HD
ENDBRANCH  17  36
TORSDOF 6
ENDMDL
