MODEL 1
REMARK minimizedAffinity -9.19330502
REMARK  14 active torsions:
REMARK  status: ('A' for Active; 'I' for Inactive)
REMARK    1  A    between atoms: C2_2  and  O1_3 
REMARK    2  A    between atoms: O1_3  and  C3_4 
REMARK    3  A    between atoms: C4_6  and  C5_7 
REMARK    4  A    between atoms: C5_7  and  O3_8 
REMARK    5  A    between atoms: C5_7  and  C6_9 
REMARK    6  A    between atoms: C6_9  and  O4_10 
REMARK    7  A    between atoms: O4_10  and  C7_11 
REMARK    8  A    between atoms: C12_16  and  C13_17 
REMARK    9  A    between atoms: C13_17  and  O5_19 
REMARK   10  A    between atoms: C13_17  and  C15_20 
REMARK   11  A    between atoms: C15_20  and  O6_21 
REMARK   12  A    between atoms: C18_24  and  O7_26 
REMARK   13  A    between atoms: C22_29  and  O8_30 
REMARK   14  A    between atoms: C23_31  and  O9_32 
ROOT
HETATM    1  C7  UNL     1       0.074  52.312 -22.047  1.00  0.00     0.126 C 
HETATM    2  C8  UNL     1      -1.328  51.850 -21.684  1.00  0.00     0.040 C 
HETATM    3  C9  UNL     1      -1.313  51.718 -20.145  1.00  0.00     0.026 C 
HETATM    4  C10 UNL     1      -0.210  52.707 -19.661  1.00  0.00    -0.001 C 
HETATM    5  C11 UNL     1       0.871  52.207 -18.694  1.00  0.00     0.013 C 
HETATM    6  C12 UNL     1       0.354  51.767 -17.309  1.00  0.00     0.022 C 
HETATM    7  C16 UNL     1      -0.161  50.314 -17.345  1.00  0.00     0.010 C 
HETATM    8  C17 UNL     1      -1.438  50.110 -18.150  1.00  0.00     0.038 C 
HETATM    9  C18 UNL     1      -1.332  50.241 -19.678  1.00  0.00     0.058 C 
HETATM   10  C19 UNL     1      -0.235  49.350 -20.273  1.00  0.00     0.046 C 
HETATM   11  C20 UNL     1       0.338  53.358 -20.966  1.00  0.00     0.015 C 
HETATM   12  C21 UNL     1       1.786  53.835 -20.971  1.00  0.00     0.013 C 
ENDROOT
BRANCH   1  13
HETATM   13  O4  UNL     1       0.120  52.912 -23.335  1.00  0.00    -0.383 OA
BRANCH  13  14
HETATM   14  C6  UNL     1      -0.068  51.956 -24.390  1.00  0.00     0.202 C 
BRANCH  14  15
HETATM   15  C5  UNL     1      -0.300  52.740 -25.687  1.00  0.00     0.173 C 
BRANCH  15  16
HETATM   16  C4  UNL     1      -1.024  51.901 -26.751  1.00  0.00     0.187 C 
HETATM   17  O2  UNL     1      -0.971  50.498 -26.381  1.00  0.00    -0.348 OA
HETATM   18  C3  UNL     1      -2.319  50.006 -26.294  1.00  0.00     0.291 C 
HETATM   19  C23 UNL     1      -3.113  50.875 -27.275  1.00  0.00     0.204 C 
HETATM   20  C22 UNL     1      -2.500  52.245 -27.023  1.00  0.00     0.183 C 
BRANCH  18  21
HETATM   21  O1  UNL     1      -2.839  50.155 -24.977  1.00  0.00    -0.359 OA
BRANCH  21  22
HETATM   22  C2  UNL     1      -3.153  48.899 -24.381  1.00  0.00     0.166 C 
HETATM   23  C1  UNL     1      -4.531  48.481 -24.856  1.00  0.00     0.033 C 
ENDBRANCH  21  22
ENDBRANCH  18  21
BRANCH  19  24
HETATM   24  O9  UNL     1      -2.875  50.475 -28.634  1.00  0.00    -0.388 OA
HETATM   25  H42 UNL     1      -1.951  50.172 -28.699  1.00  0.00     0.210 HD
ENDBRANCH  19  24
BRANCH  20  26
HETATM   26  O8  UNL     1      -3.151  52.899 -25.935  1.00  0.00    -0.390 OA
HETATM   27  H40 UNL     1      -2.808  52.484 -25.109  1.00  0.00     0.210 HD
ENDBRANCH  20  26
ENDBRANCH  15  16
BRANCH  15  28
HETATM   28  O3  UNL     1       0.967  53.218 -26.175  1.00  0.00    -0.391 OA
HETATM   29  H9  UNL     1       1.407  53.598 -25.387  1.00  0.00     0.210 HD
ENDBRANCH  15  28
ENDBRANCH  14  15
ENDBRANCH  13  14
ENDBRANCH   1  13
BRANCH   9  30
HETATM   30  O7  UNL     1      -2.577  49.711 -20.195  1.00  0.00    -0.390 OA
HETATM   31  H34 UNL     1      -2.657  48.785 -19.904  1.00  0.00     0.210 HD
ENDBRANCH   9  30
BRANCH   6  32
HETATM   32  C13 UNL     1       1.436  51.954 -16.180  1.00  0.00     0.079 C 
HETATM   33  C14 UNL     1       1.709  50.673 -15.386  1.00  0.00     0.048 C 
BRANCH  32  34
HETATM   34  O5  UNL     1       0.932  52.928 -15.245  1.00  0.00    -0.388 OA
HETATM   35  H23 UNL     1       1.014  53.789 -15.703  1.00  0.00     0.210 HD
ENDBRANCH  32  34
BRANCH  32  36
HETATM   36  C15 UNL     1       2.776  52.531 -16.701  1.00  0.00     0.201 C 
BRANCH  36  37
HETATM   37  O6  UNL     1       3.551  53.010 -15.600  1.00  0.00    -0.398 OA
HETATM   38  H26 UNL     1       4.394  53.329 -15.969  1.00  0.00     0.209 HD
ENDBRANCH  36  37
ENDBRANCH  32  36
ENDBRANCH   6  32
TORSDOF 14
ENDMDL
