MODEL 1
REMARK minimizedAffinity -7.14878368
REMARK CNNscore 0.699988365
REMARK CNNaffinity 6.93429375
REMARK  13 active torsions:
REMARK  status: ('A' for Active; 'I' for Inactive)
REMARK    1  A    between atoms: C2_2  and  C3_3 
REMARK    2  A    between atoms: C2_2  and  C9_11 
REMARK    3  A    between atoms: C3_3  and  C4_4 
REMARK    4  A    between atoms: C4_4  and  C5_6 
REMARK    5  A    between atoms: C5_6  and  C6_7 
REMARK    6  A    between atoms: C6_7  and  O2_10 
REMARK    7  A    between atoms: C20_23  and  C21_24 
REMARK    8  A    between atoms: C21_24  and  O4_25 
REMARK    9  A    between atoms: C27_31  and  O5_32 
REMARK   10  A    between atoms: O5_32  and  C28_33 
REMARK   11  A    between atoms: C30_36  and  O7_37 
REMARK   12  A    between atoms: C31_38  and  O8_39 
REMARK   13  A    between atoms: C32_40  and  O9_41 
ROOT
HETATM    1  C9  UNL     1      -1.232   6.310  12.049  1.00  0.00     0.068 C 
HETATM    2  C10 UNL     1      -2.523   5.657  12.571  1.00  0.00     0.133 C 
HETATM    3  O3  UNL     1      -3.122   4.750  12.005  1.00  0.00    -0.298 OA
HETATM    4  C11 UNL     1      -3.051   6.316  13.829  1.00  0.00     0.089 C 
HETATM    5  C12 UNL     1      -2.358   7.682  13.753  1.00  0.00    -0.022 C 
HETATM    6  C13 UNL     1      -3.172   8.545  12.721  1.00  0.00     0.017 C 
HETATM    7  C14 UNL     1      -2.259   8.449  15.101  1.00  0.00     0.024 C 
HETATM    8  C15 UNL     1      -3.647   8.682  15.727  1.00  0.00     0.010 C 
HETATM    9  C16 UNL     1      -3.518   9.548  16.965  1.00  0.00     0.010 C 
HETATM   10  C17 UNL     1      -2.969  10.940  16.603  1.00  0.00     0.025 C 
HETATM   11  C18 UNL     1      -1.847  10.894  15.550  1.00  0.00    -0.072 C 
HETATM   12  C19 UNL     1      -1.454   9.749  14.927  1.00  0.00    -0.066 C 
HETATM   13  C20 UNL     1      -0.230   9.697  13.981  1.00  0.00     0.039 C 
HETATM   14  C22 UNL     1      -0.203   8.596  12.873  1.00  0.00     0.021 C 
HETATM   15  C23 UNL     1      -0.920   7.287  13.246  1.00  0.00    -0.024 C 
HETATM   16  C24 UNL     1      -0.064   6.529  14.301  1.00  0.00     0.017 C 
HETATM   17  C25 UNL     1      -1.281  12.268  15.227  1.00  0.00     0.037 C 
HETATM   18  C26 UNL     1      -0.926  13.100  16.449  1.00  0.00     0.037 C 
HETATM   19  C27 UNL     1      -2.096  13.186  17.427  1.00  0.00     0.133 C 
HETATM   20  C33 UNL     1      -2.568  11.769  17.881  1.00  0.00    -0.014 C 
HETATM   21  C34 UNL     1      -1.463  11.068  18.710  1.00  0.00     0.018 C 
HETATM   22  C35 UNL     1      -3.798  11.947  18.807  1.00  0.00     0.018 C 
ENDROOT
BRANCH  19  23
HETATM   23  O5  UNL     1      -1.729  13.959  18.574  1.00  0.00    -0.353 OA
BRANCH  23  24
HETATM   24  C28 UNL     1      -0.468  14.629  18.461  1.00  0.00     0.291 C 
HETATM   25  O6  UNL     1       0.426  14.106  19.452  1.00  0.00    -0.356 OA
HETATM   26  C29 UNL     1       0.874  15.055  20.415  1.00  0.00     0.205 C 
HETATM   27  C30 UNL     1       1.553  16.225  19.709  1.00  0.00     0.173 C 
HETATM   28  C31 UNL     1       0.564  16.932  18.770  1.00  0.00     0.182 C 
HETATM   29  C32 UNL     1      -0.734  16.148  18.572  1.00  0.00     0.204 C 
BRANCH  27  30
HETATM   30  O7  UNL     1       2.117  17.167  20.627  1.00  0.00    -0.391 OA
HETATM   31  H46 UNL     1       2.922  16.761  20.990  1.00  0.00     0.210 HD
ENDBRANCH  27  30
BRANCH  28  32
HETATM   32  O8  UNL     1       0.220  18.237  19.272  1.00  0.00    -0.390 OA
HETATM   33  H48 UNL     1       0.961  18.483  19.867  1.00  0.00     0.210 HD
ENDBRANCH  28  32
BRANCH  29  34
HETATM   34  O9  UNL     1      -1.399  16.653  17.403  1.00  0.00    -0.388 OA
HETATM   35  H50 UNL     1      -1.518  17.608  17.570  1.00  0.00     0.210 HD
ENDBRANCH  29  34
ENDBRANCH  23  24
ENDBRANCH  19  23
BRANCH  13  36
HETATM   36  C21 UNL     1       1.086   9.722  14.793  1.00  0.00     0.173 C 
BRANCH  36  37
HETATM   37  O4  UNL     1       0.846   9.283  16.127  1.00  0.00    -0.400 OA
HETATM   38  H31 UNL     1       1.706   9.307  16.592  1.00  0.00     0.209 HD
ENDBRANCH  36  37
ENDBRANCH  13  36
BRANCH   1  39
HETATM   39  C2  UNL     1      -0.134   5.301  11.596  1.00  0.00     0.000 C 
HETATM   40  C1  UNL     1      -0.488   3.874  12.034  1.00  0.00     0.011 C 
BRANCH  39  41
HETATM   41  C3  UNL     1       1.271   5.639  12.158  1.00  0.00     0.083 C 
BRANCH  41  42
HETATM   42  C4  UNL     1       2.133   6.453  11.193  1.00  0.00     0.130 C 
HETATM   43  O1  UNL     1       2.904   7.333  11.586  1.00  0.00    -0.298 OA
BRANCH  42  44
HETATM   44  C5  UNL     1       1.960   6.136   9.715  1.00  0.00     0.115 C 
BRANCH  44  45
HETATM   45  C6  UNL     1       1.899   7.371   8.799  1.00  0.00     0.057 C 
HETATM   46  C7  UNL     1       0.644   8.220   9.047  1.00  0.00     0.045 C 
HETATM   47  C8  UNL     1       1.923   6.914   7.336  1.00  0.00     0.045 C 
BRANCH  45  48
HETATM   48  O2  UNL     1       3.058   8.189   8.984  1.00  0.00    -0.390 OA
HETATM   49  H15 UNL     1       3.084   8.426   9.936  1.00  0.00     0.210 HD
ENDBRANCH  45  48
ENDBRANCH  44  45
ENDBRANCH  42  44
ENDBRANCH  41  42
ENDBRANCH  39  41
ENDBRANCH   1  39
TORSDOF 13
ENDMDL
