MODEL 1
REMARK minimizedAffinity -8.44691372
REMARK  4 active torsions:
REMARK  status: ('A' for Active; 'I' for Inactive)
REMARK    1  A    between atoms: C2_2  and  C4_4 
REMARK    2  A    between atoms: C13_13  and  C15_15 
REMARK    3  A    between atoms: C15_15  and  O1_16 
REMARK    4  A    between atoms: C18_19  and  O2_20 
ROOT
HETATM    1  C4  UNL     1       0.179  51.994 -27.258  1.00  0.00     0.021 C 
HETATM    2  C5  UNL     1       0.047  50.588 -26.638  1.00  0.00     0.008 C 
HETATM    3  C6  UNL     1      -0.837  50.602 -25.391  1.00  0.00     0.009 C 
HETATM    4  C7  UNL     1      -0.271  51.464 -24.232  1.00  0.00     0.034 C 
HETATM    5  C8  UNL     1      -1.332  51.783 -23.096  1.00  0.00    -0.033 C 
HETATM    6  C9  UNL     1      -2.510  52.617 -23.680  1.00  0.00     0.016 C 
HETATM    7  C10 UNL     1      -1.977  50.468 -22.583  1.00  0.00     0.010 C 
HETATM    8  C11 UNL     1      -1.061  49.592 -21.744  1.00  0.00     0.002 C 
HETATM    9  C12 UNL     1      -0.066  50.355 -20.877  1.00  0.00     0.012 C 
HETATM   10  C13 UNL     1      -0.466  51.810 -20.549  1.00  0.00    -0.018 C 
HETATM   11  C14 UNL     1      -1.767  51.845 -19.705  1.00  0.00     0.018 C 
HETATM   12  C16 UNL     1      -0.672  52.614 -21.900  1.00  0.00     0.007 C 
HETATM   13  C17 UNL     1       0.619  53.341 -22.350  1.00  0.00     0.041 C 
HETATM   14  C18 UNL     1       0.531  53.880 -23.768  1.00  0.00     0.156 C 
HETATM   15  C19 UNL     1       0.426  52.729 -24.737  1.00  0.00     0.118 A 
HETATM   16  O3  UNL     1       1.706  52.418 -25.352  1.00  0.00    -0.366 OA
HETATM   17  C20 UNL     1       0.696  52.953 -26.213  1.00  0.00     0.165 A 
ENDROOT
BRANCH  10  18
HETATM   18  C15 UNL     1       0.652  52.425 -19.647  1.00  0.00     0.173 C 
BRANCH  18  19
HETATM   19  O1  UNL     1       0.201  53.573 -18.934  1.00  0.00    -0.400 OA
HETATM   20  H28 UNL     1       0.182  54.319 -19.556  1.00  0.00     0.209 HD
ENDBRANCH  18  19
ENDBRANCH  10  18
BRANCH  14  21
HETATM   21  O2  UNL     1       1.704  54.658 -24.021  1.00  0.00    -0.392 OA
HETATM   22  H33 UNL     1       2.381  54.023 -24.329  1.00  0.00     0.210 HD
ENDBRANCH  14  21
BRANCH   1  23
HETATM   23  C2  UNL     1      -1.141  52.539 -27.893  1.00  0.00    -0.016 C 
HETATM   24  C1  UNL     1      -1.189  54.070 -27.950  1.00  0.00     0.010 C 
HETATM   25  C3  UNL     1      -2.378  52.050 -27.125  1.00  0.00     0.010 C 
ENDBRANCH   1  23
TORSDOF 4
ENDMDL
