MODEL 1
REMARK minimizedAffinity -7.14795351
REMARK CNNscore 0.552906871
REMARK CNNaffinity 6.26572371
REMARK  5 active torsions:
REMARK  status: ('A' for Active; 'I' for Inactive)
REMARK    1  A    between atoms: C2_2  and  C4_4 
REMARK    2  A    between atoms: C7_7  and  C8_8 
REMARK    3  A    between atoms: C8_8  and  O2_10 
REMARK    4  A    between atoms: C11_13  and  C12_14 
REMARK    5  A    between atoms: C12_14  and  O4_16 
ROOT
HETATM    1  C4  UNL     1      -1.811  52.537 -12.218  1.00  0.00     0.019 C 
HETATM    2  C5  UNL     1      -2.232  51.231 -12.945  1.00  0.00     0.011 C 
HETATM    3  C6  UNL     1      -1.099  50.215 -12.719  1.00  0.00     0.021 C 
HETATM    4  C7  UNL     1       0.126  51.088 -12.426  1.00  0.00     0.050 C 
HETATM    5  C9  UNL     1       1.271  50.390 -11.684  1.00  0.00     0.022 C 
HETATM    6  C10 UNL     1       2.314  51.417 -11.185  1.00  0.00     0.023 C 
HETATM    7  C11 UNL     1       1.717  52.549 -10.265  1.00  0.00     0.057 C 
HETATM    8  C13 UNL     1       0.520  53.215 -11.053  1.00  0.00     0.011 C 
HETATM    9  C14 UNL     1      -0.090  54.433 -10.352  1.00  0.00     0.007 C 
HETATM   10  C15 UNL     1       0.956  55.453  -9.900  1.00  0.00     0.006 C 
HETATM   11  C16 UNL     1       2.094  54.828  -9.064  1.00  0.00     0.003 C 
HETATM   12  C17 UNL     1       3.038  55.891  -8.333  1.00  0.00    -0.035 C 
HETATM   13  C18 UNL     1       3.689  56.875  -9.332  1.00  0.00     0.016 C 
HETATM   14  C19 UNL     1       2.172  56.726  -7.338  1.00  0.00     0.017 C 
HETATM   15  C20 UNL     1       2.970  57.607  -6.386  1.00  0.00     0.080 C 
HETATM   16  C21 UNL     1       4.027  56.826  -5.646  1.00  0.00     0.135 C 
HETATM   17  O5  UNL     1       4.176  56.999  -4.434  1.00  0.00    -0.297 OA
HETATM   18  C22 UNL     1       4.954  55.917  -6.469  1.00  0.00     0.017 C 
HETATM   19  C23 UNL     1       6.038  56.786  -7.122  1.00  0.00     0.023 C 
HETATM   20  C24 UNL     1       5.672  54.962  -5.481  1.00  0.00     0.023 C 
HETATM   21  C25 UNL     1       4.076  55.084  -7.467  1.00  0.00     0.009 C 
HETATM   22  C26 UNL     1       4.874  54.095  -8.340  1.00  0.00     0.007 C 
HETATM   23  C27 UNL     1       3.944  53.065  -8.986  1.00  0.00     0.011 C 
HETATM   24  C28 UNL     1       2.815  53.671  -9.867  1.00  0.00    -0.022 C 
HETATM   25  C29 UNL     1       3.502  54.206 -11.157  1.00  0.00     0.017 C 
HETATM   26  C30 UNL     1      -0.508  52.143 -11.485  1.00  0.00     0.018 C 
ENDROOT
BRANCH   4  27
HETATM   27  C8  UNL     1       0.645  51.622 -13.771  1.00  0.00     0.149 C 
HETATM   28  O1  UNL     1       1.009  50.977 -14.738  1.00  0.00    -0.649 OA
BRANCH  27  29
HETATM   29  O2  UNL     1       0.693  52.969 -13.818  1.00  0.00    -0.776 OA
HETATM   30  H11 UNL     1       1.049  53.164 -14.710  1.00  0.00     0.167 HD
ENDBRANCH  27  29
ENDBRANCH   4  27
BRANCH   1  31
HETATM   31  C2  UNL     1      -2.937  53.096 -11.364  1.00  0.00    -0.088 C 
HETATM   32  C1  UNL     1      -4.223  52.845 -11.670  1.00  0.00     0.014 C 
HETATM   33  C3  UNL     1      -2.591  53.919 -10.152  1.00  0.00     0.043 C 
ENDBRANCH   1  31
BRANCH   7  34
HETATM   34  C12 UNL     1       1.256  51.797  -8.986  1.00  0.00     0.149 C 
HETATM   35  O3  UNL     1       1.749  50.772  -8.537  1.00  0.00    -0.649 OA
BRANCH  34  36
HETATM   36  O4  UNL     1       0.238  52.354  -8.316  1.00  0.00    -0.776 OA
HETATM   37  H16 UNL     1       0.107  51.759  -7.547  1.00  0.00     0.167 HD
ENDBRANCH  34  36
ENDBRANCH   7  34
TORSDOF 5
ENDMDL
