MODEL 1
REMARK minimizedAffinity -9.35009193
REMARK CNNscore 0.823190093
REMARK CNNaffinity 6.24140596
REMARK  14 active torsions:
REMARK  status: ('A' for Active; 'I' for Inactive)
REMARK    1  A    between atoms: C2_2  and  O1_3 
REMARK    2  A    between atoms: O1_3  and  C3_4 
REMARK    3  A    between atoms: C4_6  and  C5_7 
REMARK    4  A    between atoms: C5_7  and  O3_8 
REMARK    5  A    between atoms: C5_7  and  C6_9 
REMARK    6  A    between atoms: C6_9  and  O4_10 
REMARK    7  A    between atoms: O4_10  and  C7_11 
REMARK    8  A    between atoms: C12_16  and  C13_17 
REMARK    9  A    between atoms: C13_17  and  O5_19 
REMARK   10  A    between atoms: C13_17  and  C15_20 
REMARK   11  A    between atoms: C15_20  and  O6_21 
REMARK   12  A    between atoms: C18_24  and  O7_26 
REMARK   13  A    between atoms: C22_29  and  O8_30 
REMARK   14  A    between atoms: C23_31  and  O9_32 
ROOT
HETATM    1  C7  UNL     1      -1.754   6.138  12.854  1.00  0.00     0.126 C 
HETATM    2  C8  UNL     1      -1.935   6.572  14.299  1.00  0.00     0.040 C 
HETATM    3  C9  UNL     1      -3.356   6.099  14.678  1.00  0.00     0.026 C 
HETATM    4  C10 UNL     1      -3.645   4.887  13.741  1.00  0.00    -0.001 C 
HETATM    5  C11 UNL     1      -4.954   4.856  12.941  1.00  0.00     0.013 C 
HETATM    6  C12 UNL     1      -6.238   4.782  13.792  1.00  0.00     0.022 C 
HETATM    7  C16 UNL     1      -6.667   6.183  14.272  1.00  0.00     0.010 C 
HETATM    8  C17 UNL     1      -5.739   6.817  15.299  1.00  0.00     0.038 C 
HETATM    9  C18 UNL     1      -4.357   7.274  14.806  1.00  0.00     0.058 C 
HETATM   10  C19 UNL     1      -4.440   8.202  13.589  1.00  0.00     0.046 C 
HETATM   11  C20 UNL     1      -2.355   4.734  12.882  1.00  0.00     0.015 C 
HETATM   12  C21 UNL     1      -2.496   4.142  11.484  1.00  0.00     0.013 C 
ENDROOT
BRANCH   1  13
HETATM   13  O4  UNL     1      -0.383   6.079  12.483  1.00  0.00    -0.383 OA
BRANCH  13  14
HETATM   14  C6  UNL     1       0.259   7.362  12.559  1.00  0.00     0.202 C 
BRANCH  14  15
HETATM   15  C5  UNL     1       1.771   7.127  12.470  1.00  0.00     0.173 C 
BRANCH  15  16
HETATM   16  C4  UNL     1       2.135   6.086  11.401  1.00  0.00     0.187 C 
HETATM   17  O2  UNL     1       1.237   6.219  10.269  1.00  0.00    -0.348 OA
HETATM   18  C3  UNL     1       2.029   6.460   9.093  1.00  0.00     0.291 C 
HETATM   19  C23 UNL     1       3.370   5.776   9.383  1.00  0.00     0.204 C 
HETATM   20  C22 UNL     1       3.573   6.128  10.850  1.00  0.00     0.183 C 
BRANCH  18  21
HETATM   21  O1  UNL     1       2.226   7.853   8.879  1.00  0.00    -0.359 OA
BRANCH  21  22
HETATM   22  C2  UNL     1       2.611   8.139   7.537  1.00  0.00     0.166 C 
HETATM   23  C1  UNL     1       1.806   7.246   6.613  1.00  0.00     0.033 C 
ENDBRANCH  21  22
ENDBRANCH  18  21
BRANCH  19  24
HETATM   24  O9  UNL     1       3.271   4.351   9.230  1.00  0.00    -0.388 OA
HETATM   25  H42 UNL     1       2.376   4.082   9.511  1.00  0.00     0.210 HD
ENDBRANCH  19  24
BRANCH  20  26
HETATM   26  O8  UNL     1       4.205   7.400  10.982  1.00  0.00    -0.390 OA
HETATM   27  H40 UNL     1       3.512   8.080  10.812  1.00  0.00     0.210 HD
ENDBRANCH  20  26
ENDBRANCH  15  16
BRANCH  15  28
HETATM   28  O3  UNL     1       2.258   6.732  13.766  1.00  0.00    -0.391 OA
HETATM   29  H9  UNL     1       1.847   7.367  14.388  1.00  0.00     0.210 HD
ENDBRANCH  15  28
ENDBRANCH  14  15
ENDBRANCH  13  14
ENDBRANCH   1  13
BRANCH   9  30
HETATM   30  O7  UNL     1      -3.821   8.094  15.874  1.00  0.00    -0.390 OA
HETATM   31  H34 UNL     1      -4.431   8.839  16.021  1.00  0.00     0.210 HD
ENDBRANCH   9  30
BRANCH   6  32
HETATM   32  C13 UNL     1      -7.415   4.059  13.036  1.00  0.00     0.079 C 
HETATM   33  C14 UNL     1      -8.203   4.992  12.112  1.00  0.00     0.048 C 
BRANCH  32  34
HETATM   34  O5  UNL     1      -8.340   3.570  14.028  1.00  0.00    -0.388 OA
HETATM   35  H23 UNL     1      -7.898   2.797  14.433  1.00  0.00     0.210 HD
ENDBRANCH  32  34
BRANCH  32  36
HETATM   36  C15 UNL     1      -6.960   2.810  12.241  1.00  0.00     0.201 C 
BRANCH  36  37
HETATM   37  O6  UNL     1      -7.843   1.720  12.516  1.00  0.00    -0.398 OA
HETATM   38  H26 UNL     1      -7.543   0.971  11.971  1.00  0.00     0.209 HD
ENDBRANCH  36  37
ENDBRANCH  32  36
ENDBRANCH   6  32
TORSDOF 14
ENDMDL
