MODEL 1
REMARK minimizedAffinity -11.0225153
REMARK  1 active torsions:
REMARK  status: ('A' for Active; 'I' for Inactive)
REMARK    1  A    between atoms: C22_26  and  O5_27 
ROOT
HETATM    1  C1  UNL     1       1.244  52.196 -16.303  1.00  0.00     0.014 C 
HETATM    2  C2  UNL     1       0.604  51.198 -16.936  1.00  0.00    -0.085 C 
HETATM    3  C3  UNL     1       0.068  50.022 -16.143  1.00  0.00     0.035 C 
HETATM    4  C4  UNL     1      -1.439  49.870 -16.353  1.00  0.00     0.025 C 
HETATM    5  C5  UNL     1      -1.799  49.811 -17.839  1.00  0.00     0.055 C 
HETATM    6  C6  UNL     1      -1.449  48.451 -18.486  1.00  0.00     0.021 C 
HETATM    7  C7  UNL     1      -1.965  48.307 -19.933  1.00  0.00     0.014 C 
HETATM    8  C8  UNL     1      -1.738  49.586 -20.804  1.00  0.00    -0.001 C 
HETATM    9  C9  UNL     1      -0.242  49.509 -21.244  1.00  0.00     0.019 C 
HETATM   10  C10 UNL     1      -2.011  50.879 -19.915  1.00  0.00     0.112 C 
HETATM   11  O1  UNL     1      -3.349  50.706 -19.318  1.00  0.00    -0.305 OA
HETATM   12  C11 UNL     1      -3.257  50.073 -18.104  1.00  0.00     0.269 C 
HETATM   13  O2  UNL     1      -4.207  49.753 -17.414  1.00  0.00    -0.264 OA
HETATM   14  C12 UNL     1      -1.217  51.017 -18.603  1.00  0.00     0.050 C 
HETATM   15  C13 UNL     1       0.314  51.132 -18.446  1.00  0.00     0.018 C 
HETATM   16  C14 UNL     1       0.911  52.297 -19.238  1.00  0.00     0.015 C 
HETATM   17  C15 UNL     1      -2.126  52.156 -20.704  1.00  0.00     0.187 A 
HETATM   18  O3  UNL     1      -1.114  52.491 -21.647  1.00  0.00    -0.372 OA
HETATM   19  C16 UNL     1      -2.388  52.119 -22.200  1.00  0.00     0.160 A 
HETATM   20  C17 UNL     1      -2.314  50.835 -23.006  1.00  0.00     0.035 C 
HETATM   21  C18 UNL     1      -2.950  50.930 -24.444  1.00  0.00    -0.023 C 
HETATM   22  C19 UNL     1      -4.463  51.280 -24.424  1.00  0.00     0.016 C 
HETATM   23  C20 UNL     1      -2.217  52.044 -25.245  1.00  0.00     0.096 C 
HETATM   24  C21 UNL     1      -2.558  52.031 -26.718  1.00  0.00     0.183 C 
HETATM   25  O4  UNL     1      -2.439  53.026 -27.435  1.00  0.00    -0.290 OA
HETATM   26  C22 UNL     1      -3.024  50.761 -27.352  1.00  0.00     0.114 C 
HETATM   27  C23 UNL     1      -3.086  49.614 -26.650  1.00  0.00    -0.042 C 
HETATM   28  C24 UNL     1      -3.493  48.322 -27.309  1.00  0.00     0.047 C 
HETATM   29  C25 UNL     1      -2.668  49.574 -25.181  1.00  0.00     0.026 C 
HETATM   30  C26 UNL     1      -3.196  48.370 -24.373  1.00  0.00     0.011 C 
HETATM   31  C27 UNL     1      -2.579  48.301 -22.968  1.00  0.00     0.011 C 
HETATM   32  C28 UNL     1      -2.724  49.601 -22.122  1.00  0.00    -0.027 C 
HETATM   33  C29 UNL     1      -4.226  49.688 -21.714  1.00  0.00     0.016 C 
ENDROOT
BRANCH  26  34
HETATM   34  O5  UNL     1      -3.355  50.827 -28.692  1.00  0.00    -0.357 OA
HETATM   35  H27 UNL     1      -3.179  51.758 -28.949  1.00  0.00     0.218 HD
ENDBRANCH  26  34
TORSDOF 1
ENDMDL
