MODEL 1
REMARK minimizedAffinity -8.45520782
REMARK  11 active torsions:
REMARK  status: ('A' for Active; 'I' for Inactive)
REMARK    1  A    between atoms: C2_2  and  O1_3 
REMARK    2  A    between atoms: O1_3  and  C3_4 
REMARK    3  A    between atoms: C3_4  and  C4_6 
REMARK    4  A    between atoms: C4_6  and  O3_7 
REMARK    5  A    between atoms: O3_7  and  C5_8 
REMARK       I    between atoms: N1_11  and  C8_12 
REMARK    6  A    between atoms: C8_12  and  C9_14 
REMARK    7  A    between atoms: C9_14  and  N2_16 
REMARK       I    between atoms: N2_16  and  C11_17 
REMARK    8  A    between atoms: C11_17  and  C12_19 
REMARK    9  A    between atoms: C15_22  and  C16_23 
REMARK   10  A    between atoms: C16_23  and  N3_24 
REMARK   11  A    between atoms: N4_25  and  O6_27 
ROOT
HETATM    1  N2  UNL     1      -3.483   7.562  14.677  1.00  0.00    -0.344 N 
HETATM    2  C11 UNL     1      -4.681   7.629  14.005  1.00  0.00     0.252 C 
HETATM    3  O5  UNL     1      -5.244   8.690  13.752  1.00  0.00    -0.268 OA
HETATM    4  H17 UNL     1      -2.942   6.703  14.686  1.00  0.00     0.163 HD
ENDROOT
BRANCH   1   5
HETATM    5  C9  UNL     1      -2.740   8.763  15.061  1.00  0.00     0.173 C 
HETATM    6  C10 UNL     1      -1.868   8.479  16.278  1.00  0.00     0.042 C 
BRANCH   5   7
HETATM    7  C8  UNL     1      -1.883   9.169  13.839  1.00  0.00     0.242 C 
HETATM    8  N1  UNL     1      -1.255   8.183  13.087  1.00  0.00    -0.350 N 
HETATM    9  C7  UNL     1      -1.143   6.774  13.475  1.00  0.00     0.128 C 
HETATM   10  C19 UNL     1      -0.485   8.608  11.917  1.00  0.00     0.128 C 
HETATM   11  C6  UNL     1       0.205   6.198  13.070  1.00  0.00     0.052 C 
HETATM   12  C5  UNL     1       0.420   6.271  11.555  1.00  0.00     0.125 C 
HETATM   13  C20 UNL     1      -0.287   7.474  10.917  1.00  0.00     0.052 C 
HETATM   14  O4  UNL     1      -1.788  10.368  13.535  1.00  0.00    -0.271 OA
BRANCH  12  15
HETATM   15  O3  UNL     1       1.835   6.356  11.338  1.00  0.00    -0.376 OA
BRANCH  15  16
HETATM   16  C4  UNL     1       2.389   5.237  10.656  1.00  0.00     0.279 C 
BRANCH  16  17
HETATM   17  C3  UNL     1       3.446   5.560   9.597  1.00  0.00     0.282 C 
HETATM   18  O2  UNL     1       4.644   5.700   9.806  1.00  0.00    -0.263 OA
BRANCH  17  19
HETATM   19  O1  UNL     1       2.847   5.652   8.372  1.00  0.00    -0.320 OA
BRANCH  19  20
HETATM   20  C2  UNL     1       2.364   6.954   8.011  1.00  0.00     0.174 C 
HETATM   21  C1  UNL     1       1.861   6.954   6.580  1.00  0.00     0.034 C 
ENDBRANCH  19  20
ENDBRANCH  17  19
ENDBRANCH  16  17
ENDBRANCH  15  16
ENDBRANCH  12  15
ENDBRANCH   5   7
ENDBRANCH   1   5
BRANCH   2  22
HETATM   22  C12 UNL     1      -5.263   6.335  13.547  1.00  0.00     0.032 A 
HETATM   23  C13 UNL     1      -6.634   6.059  13.628  1.00  0.00     0.018 A 
HETATM   24  C14 UNL     1      -7.130   4.823  13.194  1.00  0.00     0.016 A 
HETATM   25  C15 UNL     1      -6.261   3.858  12.670  1.00  0.00     0.004 A 
HETATM   26  C17 UNL     1      -4.894   4.144  12.567  1.00  0.00     0.016 A 
HETATM   27  C18 UNL     1      -4.398   5.376  13.002  1.00  0.00     0.018 A 
BRANCH  25  28
HETATM   28  C16 UNL     1      -6.785   2.534  12.209  1.00  0.00     0.108 C 
HETATM   29  N4  UNL     1      -6.088   1.850  11.345  1.00  0.00    -0.258 N 
ATOM     30  H4  UNL     1      -5.206   2.160  10.938  1.00  0.00     0.195 HD
BRANCH  28  31
HETATM   31  N3  UNL     1      -7.978   2.066  12.714  1.00  0.00    -0.287 NA
HETATM   32  H20 UNL     1      -8.089   1.092  12.439  1.00  0.00     0.125 HD
HETATM   33  H21 UNL     1      -8.092   2.186  13.714  1.00  0.00     0.125 HD
ENDBRANCH  28  31
BRANCH  29  34
HETATM   34  O6  UNL     1      -6.716   0.627  11.049  1.00  0.00    -0.289 OA
HETATM   35  H22 UNL     1      -6.136   0.269  10.351  1.00  0.00     0.244 HD
ENDBRANCH  29  34
ENDBRANCH  25  28
ENDBRANCH   2  22
TORSDOF 11
ENDMDL
