MODEL 1
REMARK minimizedAffinity -7.41757774
REMARK CNNscore 0.722236216
REMARK CNNaffinity 6.81451654
REMARK  13 active torsions:
REMARK  status: ('A' for Active; 'I' for Inactive)
REMARK    1  A    between atoms: C2_2  and  C3_3 
REMARK    2  A    between atoms: C2_2  and  C4_5 
REMARK    3  A    between atoms: C3_3  and  O1_4 
REMARK    4  A    between atoms: C4_5  and  C5_6 
REMARK    5  A    between atoms: C5_6  and  C6_7 
REMARK    6  A    between atoms: C6_7  and  O2_8 
REMARK    7  A    between atoms: C6_7  and  C7_9 
REMARK    8  A    between atoms: C7_9  and  C9_11 
REMARK    9  A    between atoms: C10_12  and  O3_13 
REMARK   10  A    between atoms: O3_13  and  C11_14 
REMARK   11  A    between atoms: C13_17  and  O5_18 
REMARK   12  A    between atoms: C14_19  and  O6_20 
REMARK   13  A    between atoms: C15_21  and  O7_22 
ROOT
HETATM    1  C9  UNL     1      13.491  42.534 -26.096  1.00  0.00     0.029 C 
HETATM    2  C10 UNL     1      12.567  41.626 -26.965  1.00  0.00     0.130 C 
HETATM    3  C16 UNL     1      11.832  40.704 -25.963  1.00  0.00     0.038 C 
HETATM    4  C17 UNL     1      12.100  41.336 -24.604  1.00  0.00     0.001 C 
HETATM    5  C18 UNL     1      11.828  40.514 -23.340  1.00  0.00    -0.004 C 
HETATM    6  C19 UNL     1      10.383  39.984 -23.297  1.00  0.00     0.010 C 
HETATM    7  C20 UNL     1      10.055  39.282 -21.977  1.00  0.00     0.035 C 
HETATM    8  C21 UNL     1      10.393  40.207 -20.832  1.00  0.00    -0.068 C 
HETATM    9  C22 UNL     1       9.411  40.703 -20.058  1.00  0.00     0.053 C 
HETATM   10  C23 UNL     1       9.659  41.831 -19.131  1.00  0.00     0.149 C 
HETATM   11  O8  UNL     1       8.760  42.215 -18.388  1.00  0.00    -0.293 OA
HETATM   12  C24 UNL     1      10.989  42.533 -19.228  1.00  0.00     0.084 C 
HETATM   13  C25 UNL     1      12.085  41.512 -19.474  1.00  0.00     0.022 C 
HETATM   14  C26 UNL     1      11.862  40.643 -20.746  1.00  0.00    -0.016 C 
HETATM   15  C27 UNL     1      12.790  39.413 -20.568  1.00  0.00     0.020 C 
HETATM   16  C28 UNL     1      12.157  41.405 -22.088  1.00  0.00     0.002 C 
HETATM   17  C29 UNL     1      13.573  42.029 -22.175  1.00  0.00     0.007 C 
HETATM   18  C30 UNL     1      13.859  42.722 -23.522  1.00  0.00     0.010 C 
HETATM   19  C31 UNL     1      13.572  41.801 -24.719  1.00  0.00    -0.034 C 
HETATM   20  C32 UNL     1      14.582  40.636 -24.710  1.00  0.00     0.016 C 
ENDROOT
BRANCH   2  21
HETATM   21  O3  UNL     1      13.290  40.864 -27.915  1.00  0.00    -0.353 OA
BRANCH  21  22
HETATM   22  C11 UNL     1      12.527  40.548 -29.088  1.00  0.00     0.291 C 
HETATM   23  O4  UNL     1      13.384  40.071 -30.122  1.00  0.00    -0.356 OA
HETATM   24  C12 UNL     1      12.673  39.767 -31.315  1.00  0.00     0.205 C 
HETATM   25  C13 UNL     1      12.027  41.019 -31.894  1.00  0.00     0.173 C 
HETATM   26  C14 UNL     1      11.098  41.668 -30.864  1.00  0.00     0.182 C 
HETATM   27  C15 UNL     1      11.783  41.836 -29.502  1.00  0.00     0.204 C 
BRANCH  25  28
HETATM   28  O5  UNL     1      11.290  40.720 -33.086  1.00  0.00    -0.391 OA
HETATM   29  H24 UNL     1      10.580  40.091 -32.863  1.00  0.00     0.210 HD
ENDBRANCH  25  28
BRANCH  26  30
HETATM   30  O6  UNL     1      10.672  42.942 -31.377  1.00  0.00    -0.390 OA
HETATM   31  H26 UNL     1      10.400  42.790 -32.301  1.00  0.00     0.210 HD
ENDBRANCH  26  30
BRANCH  27  32
HETATM   32  O7  UNL     1      10.781  42.143 -28.513  1.00  0.00    -0.388 OA
HETATM   33  H28 UNL     1      11.258  42.192 -27.652  1.00  0.00     0.210 HD
ENDBRANCH  27  32
ENDBRANCH  21  22
ENDBRANCH   2  21
BRANCH   1  34
HETATM   34  C7  UNL     1      14.777  43.166 -26.712  1.00  0.00     0.017 C 
HETATM   35  C8  UNL     1      16.008  42.397 -26.196  1.00  0.00     0.013 C 
BRANCH  34  36
HETATM   36  C6  UNL     1      14.991  44.702 -26.585  1.00  0.00     0.122 C 
BRANCH  36  37
HETATM   37  C5  UNL     1      16.388  45.074 -26.040  1.00  0.00     0.032 C 
BRANCH  37  38
HETATM   38  C4  UNL     1      17.425  45.382 -27.129  1.00  0.00     0.009 C 
BRANCH  38  39
HETATM   39  C2  UNL     1      18.850  45.586 -26.574  1.00  0.00     0.005 C 
HETATM   40  C1  UNL     1      19.358  44.337 -25.847  1.00  0.00     0.012 C 
BRANCH  39  41
HETATM   41  C3  UNL     1      18.896  46.803 -25.635  1.00  0.00     0.168 C 
BRANCH  41  42
HETATM   42  O1  UNL     1      19.977  47.660 -25.972  1.00  0.00    -0.400 OA
HETATM   43  H7  UNL     1      19.941  48.418 -25.363  1.00  0.00     0.209 HD
ENDBRANCH  41  42
ENDBRANCH  39  41
ENDBRANCH  38  39
ENDBRANCH  37  38
ENDBRANCH  36  37
BRANCH  36  44
HETATM   44  O2  UNL     1      14.042  45.281 -25.680  1.00  0.00    -0.395 OA
HETATM   45  H13 UNL     1      14.167  46.247 -25.733  1.00  0.00     0.210 HD
ENDBRANCH  36  44
ENDBRANCH  34  36
ENDBRANCH   1  34
TORSDOF 13
ENDMDL
