MODEL 1
REMARK minimizedAffinity -8.27421665
REMARK CNNscore 0.311263442
REMARK CNNaffinity 7.59203911
REMARK  13 active torsions:
REMARK  status: ('A' for Active; 'I' for Inactive)
REMARK    1  A    between atoms: C3_3  and  O1_4 
REMARK    2  A    between atoms: N1_14  and  O2_16 
REMARK    3  A    between atoms: O2_16  and  C13_17 
REMARK    4  A    between atoms: C13_17  and  C14_18 
REMARK       I    between atoms: C14_18  and  N2_20 
REMARK    5  A    between atoms: N2_20  and  C15_21 
REMARK    6  A    between atoms: C15_21  and  C16_22 
REMARK    7  A    between atoms: C15_21  and  C21_32 
REMARK       I    between atoms: C16_22  and  N3_24 
REMARK    8  A    between atoms: N3_24  and  C17_25 
REMARK    9  A    between atoms: C17_25  and  C18_26 
REMARK   10  A    between atoms: C17_25  and  C19_28 
REMARK   11  A    between atoms: C18_26  and  S1_27 
REMARK   12  A    between atoms: C19_28  and  C20_29 
REMARK   13  A    between atoms: C20_29  and  O6_31 
ROOT
HETATM    1  C1  UNL     1     -14.191   9.850  12.704  1.00  0.00     0.015 C 
HETATM    2  C2  UNL     1     -13.148   9.603  13.251  1.00  0.00    -0.078 C 
HETATM    3  C3  UNL     1     -11.888   9.321  13.963  1.00  0.00     0.128 C 
HETATM    4  C4  UNL     1     -12.053   9.514  15.479  1.00  0.00     0.052 C 
HETATM    5  C5  UNL     1     -10.802   8.857  16.042  1.00  0.00     0.010 C 
HETATM    6  C6  UNL     1     -10.629   7.591  15.184  1.00  0.00     0.002 C 
HETATM    7  C7  UNL     1      -9.191   7.034  15.081  1.00  0.00    -0.004 C 
HETATM    8  C8  UNL     1      -8.061   8.064  14.885  1.00  0.00     0.010 C 
HETATM    9  C9  UNL     1      -6.952   7.677  13.901  1.00  0.00     0.035 C 
HETATM   10  C10 UNL     1      -6.627   6.210  13.747  1.00  0.00    -0.069 C 
HETATM   11  C11 UNL     1      -5.430   5.838  13.263  1.00  0.00     0.030 C 
HETATM   12  C12 UNL     1      -5.112   4.411  12.956  1.00  0.00     0.032 C 
HETATM   13  N1  UNL     1      -3.922   3.945  12.709  1.00  0.00    -0.271 N 
ATOM     14  H1  UNL     1      -3.727   2.981  12.438  1.00  0.00     0.194 HD
HETATM   15  C24 UNL     1      -6.255   3.408  12.928  1.00  0.00     0.060 C 
HETATM   16  C25 UNL     1      -7.637   4.055  13.007  1.00  0.00     0.020 C 
HETATM   17  C26 UNL     1      -7.719   5.196  14.057  1.00  0.00    -0.016 C 
HETATM   18  C27 UNL     1      -7.440   4.604  15.467  1.00  0.00     0.020 C 
HETATM   19  C28 UNL     1      -9.133   5.884  14.047  1.00  0.00     0.002 C 
HETATM   20  C29 UNL     1      -9.624   6.337  12.647  1.00  0.00     0.007 C 
HETATM   21  C30 UNL     1     -10.402   7.659  12.628  1.00  0.00     0.014 C 
HETATM   22  C31 UNL     1     -11.358   7.850  13.824  1.00  0.00     0.003 C 
HETATM   23  C32 UNL     1     -12.519   6.827  13.694  1.00  0.00     0.020 C 
ENDROOT
BRANCH   3  24
HETATM   24  O1  UNL     1     -10.902  10.255  13.508  1.00  0.00    -0.377 OA
HETATM   25  H2  UNL     1     -11.281  11.146  13.618  1.00  0.00     0.211 HD
ENDBRANCH   3  24
BRANCH  13  26
HETATM   26  O2  UNL     1      -2.942   4.938  12.862  1.00  0.00    -0.271 OA
BRANCH  26  27
HETATM   27  C13 UNL     1      -1.698   4.327  13.194  1.00  0.00     0.303 C 
BRANCH  27  28
HETATM   28  C14 UNL     1      -0.726   4.770  12.116  1.00  0.00     0.244 C 
HETATM   29  O3  UNL     1      -0.512   4.121  11.098  1.00  0.00    -0.271 OA
HETATM   30  N2  UNL     1      -0.074   5.948  12.419  1.00  0.00    -0.346 N 
HETATM   31  H16 UNL     1      -0.254   6.379  13.322  1.00  0.00     0.163 HD
BRANCH  30  32
HETATM   32  C15 UNL     1       1.049   6.473  11.631  1.00  0.00     0.180 C 
BRANCH  32  33
HETATM   33  C16 UNL     1       2.021   7.176  12.613  1.00  0.00     0.241 C 
HETATM   34  O4  UNL     1       2.787   8.081  12.288  1.00  0.00    -0.271 OA
HETATM   35  N3  UNL     1       2.010   6.614  13.882  1.00  0.00    -0.353 N 
HETATM   36  H18 UNL     1       1.300   5.901  14.014  1.00  0.00     0.163 HD
BRANCH  35  37
HETATM   37  C17 UNL     1       2.453   7.359  15.060  1.00  0.00     0.103 C 
BRANCH  37  38
HETATM   38  C18 UNL     1       1.224   7.905  15.817  1.00  0.00     0.096 C 
BRANCH  38  39
HETATM   39  S1  UNL     1       0.038   8.802  14.774  1.00  0.00    -0.180 SA
HETATM   40  H22 UNL     1      -0.470   7.728  14.143  1.00  0.00     0.101 HD
ENDBRANCH  38  39
ENDBRANCH  37  38
BRANCH  37  41
HETATM   41  C19 UNL     1       3.486   8.421  14.646  1.00  0.00     0.136 C 
BRANCH  41  42
HETATM   42  C20 UNL     1       4.889   8.037  15.025  1.00  0.00     0.141 C 
HETATM   43  O5  UNL     1       5.896   8.688  14.797  1.00  0.00    -0.650 OA
BRANCH  42  44
HETATM   44  O6  UNL     1       4.954   6.848  15.662  1.00  0.00    -0.776 OA
HETATM   45  H25 UNL     1       5.925   6.675  15.762  1.00  0.00     0.167 HD
ENDBRANCH  42  44
ENDBRANCH  41  42
ENDBRANCH  37  41
ENDBRANCH  35  37
ENDBRANCH  32  33
BRANCH  32  46
HETATM   46  C21 UNL     1       0.582   7.401  10.491  1.00  0.00     0.009 C 
HETATM   47  C22 UNL     1      -0.098   8.656  11.047  1.00  0.00     0.012 C 
HETATM   48  C23 UNL     1       1.716   7.802   9.537  1.00  0.00     0.012 C 
ENDBRANCH  32  46
ENDBRANCH  30  32
ENDBRANCH  27  28
ENDBRANCH  26  27
ENDBRANCH  13  26
TORSDOF 13
ENDMDL
