MODEL 1
REMARK minimizedAffinity -9.75781631
REMARK CNNscore 0.496659875
REMARK CNNaffinity 7.91535997
REMARK  11 active torsions:
REMARK  status: ('A' for Active; 'I' for Inactive)
REMARK    1  A    between atoms: C12_13  and  O2_14 
REMARK    2  A    between atoms: C19_21  and  O3_22 
REMARK    3  A    between atoms: C19_21  and  C20_23 
REMARK    4  A    between atoms: C20_23  and  C21_25 
REMARK    5  A    between atoms: C21_25  and  O5_26 
REMARK    6  A    between atoms: O5_26  and  C22_27 
REMARK    7  A    between atoms: C22_27  and  C23_29 
REMARK    8  A    between atoms: C23_29  and  C24_30 
REMARK    9  A    between atoms: C24_30  and  C25_31 
REMARK       I    between atoms: C25_31  and  N1_33 
REMARK   10  A    between atoms: N1_33  and  C26_34 
REMARK   11  A    between atoms: C26_34  and  C27_35 
ROOT
HETATM    1  C1  UNL     1      -4.107  51.426 -24.755  1.00  0.00     0.020 C 
HETATM    2  C2  UNL     1      -3.479  50.023 -24.583  1.00  0.00    -0.014 C 
HETATM    3  C3  UNL     1      -2.216  49.913 -25.487  1.00  0.00     0.022 C 
HETATM    4  C4  UNL     1      -2.532  49.831 -26.977  1.00  0.00     0.084 C 
HETATM    5  C5  UNL     1      -3.495  48.706 -27.257  1.00  0.00     0.149 C 
HETATM    6  O1  UNL     1      -3.516  48.105 -28.329  1.00  0.00    -0.293 OA
HETATM    7  C6  UNL     1      -4.511  48.385 -26.231  1.00  0.00     0.053 C 
HETATM    8  C7  UNL     1      -4.538  49.009 -25.039  1.00  0.00    -0.068 C 
HETATM    9  C8  UNL     1      -5.690  48.757 -24.095  1.00  0.00     0.035 C 
HETATM   10  C9  UNL     1      -5.203  48.398 -22.701  1.00  0.00     0.010 C 
HETATM   11  C10 UNL     1      -4.255  49.471 -22.140  1.00  0.00    -0.002 C 
HETATM   12  C11 UNL     1      -3.043  49.680 -23.100  1.00  0.00     0.031 C 
HETATM   13  C12 UNL     1      -1.926  50.592 -22.492  1.00  0.00     0.124 C 
HETATM   14  C13 UNL     1      -1.594  50.312 -21.007  1.00  0.00     0.045 C 
HETATM   15  C14 UNL     1      -2.831  50.127 -20.098  1.00  0.00     0.001 C 
HETATM   16  C15 UNL     1      -3.562  51.473 -19.890  1.00  0.00     0.019 C 
HETATM   17  C16 UNL     1      -3.726  49.053 -20.760  1.00  0.00     0.002 C 
HETATM   18  C17 UNL     1      -4.724  48.690 -19.671  1.00  0.00     0.009 C 
HETATM   19  C18 UNL     1      -3.941  48.830 -18.345  1.00  0.00     0.047 C 
HETATM   20  C19 UNL     1      -2.575  49.452 -18.705  1.00  0.00     0.128 C 
ENDROOT
BRANCH  20  21
HETATM   21  O3  UNL     1      -1.661  48.348 -18.860  1.00  0.00    -0.381 OA
HETATM   22  H27 UNL     1      -0.762  48.740 -18.890  1.00  0.00     0.211 HD
ENDBRANCH  20  21
BRANCH  20  23
HETATM   23  C20 UNL     1      -1.902  50.360 -17.653  1.00  0.00     0.185 C 
HETATM   24  O4  UNL     1      -2.614  51.060 -16.923  1.00  0.00    -0.292 OA
BRANCH  23  25
HETATM   25  C21 UNL     1      -0.382  50.455 -17.575  1.00  0.00     0.260 C 
BRANCH  25  26
HETATM   26  O5  UNL     1       0.238  51.145 -18.656  1.00  0.00    -0.314 OA
BRANCH  26  27
HETATM   27  C22 UNL     1       0.430  52.478 -18.448  1.00  0.00     0.259 C 
HETATM   28  O6  UNL     1       0.717  52.965 -17.368  1.00  0.00    -0.265 OA
BRANCH  27  29
HETATM   29  C23 UNL     1       0.388  53.264 -19.739  1.00  0.00     0.120 C 
BRANCH  29  30
HETATM   30  C24 UNL     1       1.366  52.773 -20.798  1.00  0.00     0.112 C 
BRANCH  30  31
HETATM   31  C25 UNL     1       1.286  53.672 -22.010  1.00  0.00     0.218 C 
HETATM   32  O7  UNL     1       1.697  54.830 -21.978  1.00  0.00    -0.274 OA
HETATM   33  N1  UNL     1       0.660  53.106 -23.098  1.00  0.00    -0.357 N 
HETATM   34  H34 UNL     1       0.112  52.266 -22.958  1.00  0.00     0.162 HD
BRANCH  33  35
HETATM   35  C26 UNL     1       0.341  53.907 -24.260  1.00  0.00     0.162 C 
BRANCH  35  36
HETATM   36  C27 UNL     1       0.427  53.088 -25.517  1.00  0.00    -0.025 A 
HETATM   37  C28 UNL     1       0.986  51.805 -25.516  1.00  0.00     0.011 A 
HETATM   38  C29 UNL     1       1.091  51.096 -26.710  1.00  0.00     0.018 A 
HETATM   39  C30 UNL     1       0.633  51.693 -27.873  1.00  0.00     0.087 A 
HETATM   40  N2  UNL     1       0.081  52.929 -27.913  1.00  0.00    -0.375 N 
HETATM   41  C31 UNL     1      -0.014  53.592 -26.736  1.00  0.00     0.096 A 
ATOM     42  H2  UNL     1      -0.247  53.341 -28.787  1.00  0.00     0.164 HD
ENDBRANCH  35  36
ENDBRANCH  33  35
ENDBRANCH  30  31
ENDBRANCH  29  30
ENDBRANCH  27  29
ENDBRANCH  26  27
ENDBRANCH  25  26
ENDBRANCH  23  25
ENDBRANCH  20  23
BRANCH  13  43
HETATM   43  O2  UNL     1      -2.167  51.977 -22.669  1.00  0.00    -0.395 OA
HETATM   44  H16 UNL     1      -3.082  52.181 -22.424  1.00  0.00     0.210 HD
ENDBRANCH  13  43
TORSDOF 11
ENDMDL
