MODEL 1
REMARK minimizedAffinity -8.35227108
REMARK CNNscore 0.603900611
REMARK CNNaffinity 7.04032135
REMARK  6 active torsions:
REMARK  status: ('A' for Active; 'I' for Inactive)
REMARK    1  A    between atoms: C3_3  and  C4_4 
REMARK    2  A    between atoms: C4_4  and  O1_5 
REMARK    3  A    between atoms: C7_9  and  O3_10 
REMARK    4  A    between atoms: C21_24  and  O4_26 
REMARK    5  A    between atoms: C23_27  and  O5_28 
REMARK    6  A    between atoms: C30_36  and  C31_37 
ROOT
HETATM    1  C1  UNL     1      11.399  45.991  -7.471  1.00  0.00     0.013 C 
HETATM    2  C2  UNL     1       9.962  46.492  -7.555  1.00  0.00     0.023 C 
HETATM    3  C3  UNL     1       8.978  45.749  -6.655  1.00  0.00     0.047 C 
HETATM    4  C5  UNL     1       7.620  46.059  -7.298  1.00  0.00     0.160 C 
HETATM    5  O2  UNL     1       7.911  46.084  -8.711  1.00  0.00    -0.373 OA
HETATM    6  C6  UNL     1       9.324  46.274  -8.926  1.00  0.00     0.167 C 
HETATM    7  C7  UNL     1       9.583  47.400  -9.944  1.00  0.00     0.226 C 
HETATM    8  C8  UNL     1       8.605  48.516  -9.904  1.00  0.00    -0.072 C 
HETATM    9  C9  UNL     1       7.806  49.409  -9.954  1.00  0.00    -0.103 C 
HETATM   10  C10 UNL     1       6.974  50.604 -10.153  1.00  0.00     0.099 C 
HETATM   11  C11 UNL     1       5.585  50.752  -9.442  1.00  0.00     0.009 C 
HETATM   12  C12 UNL     1       5.139  52.184  -9.928  1.00  0.00     0.016 C 
HETATM   13  C13 UNL     1       4.414  53.211  -9.001  1.00  0.00     0.027 C 
HETATM   14  C14 UNL     1       4.337  52.848  -7.542  1.00  0.00    -0.030 C 
HETATM   15  C15 UNL     1       4.309  53.739  -6.529  1.00  0.00    -0.006 C 
HETATM   16  C16 UNL     1       4.266  53.362  -5.068  1.00  0.00     0.043 C 
HETATM   17  C17 UNL     1       4.805  51.961  -4.806  1.00  0.00     0.013 C 
HETATM   18  C18 UNL     1       4.187  50.957  -5.782  1.00  0.00     0.026 C 
HETATM   19  C19 UNL     1       4.791  49.535  -5.765  1.00  0.00     0.016 C 
HETATM   20  C20 UNL     1       4.996  49.159  -7.279  1.00  0.00     0.034 C 
HETATM   21  C21 UNL     1       5.565  47.710  -7.486  1.00  0.00     0.087 C 
HETATM   22  C22 UNL     1       5.382  47.244  -8.936  1.00  0.00     0.049 C 
HETATM   23  C23 UNL     1       6.932  47.380  -6.811  1.00  0.00     0.181 C 
HETATM   24  C24 UNL     1       5.450  50.553  -7.893  1.00  0.00     0.003 C 
HETATM   25  C25 UNL     1       6.771  51.102  -7.293  1.00  0.00     0.019 C 
HETATM   26  C26 UNL     1       4.213  51.376  -7.291  1.00  0.00     0.098 C 
HETATM   27  O6  UNL     1       2.867  50.952  -7.622  1.00  0.00    -0.363 OA
HETATM   28  C27 UNL     1       2.317  50.733  -8.896  1.00  0.00     0.263 C 
HETATM   29  C28 UNL     1       1.215  51.690  -9.119  1.00  0.00    -0.080 C 
HETATM   30  C29 UNL     1       0.365  52.523  -9.272  1.00  0.00    -0.093 C 
HETATM   31  C30 UNL     1      -0.649  53.613  -9.359  1.00  0.00     0.121 C 
HETATM   32  C37 UNL     1      -0.208  54.756 -10.314  1.00  0.00     0.190 C 
HETATM   33  O7  UNL     1       0.668  55.734  -9.712  1.00  0.00    -0.384 OA
HETATM   34  C38 UNL     1       2.004  55.286  -9.497  1.00  0.00     0.122 C 
HETATM   35  C39 UNL     1       2.767  55.119 -10.822  1.00  0.00     0.033 C 
HETATM   36  C40 UNL     1       4.296  55.172 -10.659  1.00  0.00     0.013 C 
HETATM   37  C41 UNL     1       4.802  54.723  -9.262  1.00  0.00    -0.026 C 
HETATM   38  C42 UNL     1       6.338  54.922  -9.175  1.00  0.00     0.016 C 
HETATM   39  C43 UNL     1       4.177  55.709  -8.222  1.00  0.00     0.071 C 
HETATM   40  C44 UNL     1       2.759  56.223  -8.560  1.00  0.00     0.045 C 
HETATM   41  C45 UNL     1       4.248  55.204  -6.794  1.00  0.00     0.161 C 
HETATM   42  O8  UNL     1       4.257  56.001  -5.858  1.00  0.00    -0.292 OA
ENDROOT
BRANCH  31  43
HETATM   43  C31 UNL     1      -1.992  53.022  -9.762  1.00  0.00    -0.040 A 
HETATM   44  C32 UNL     1      -2.923  53.762 -10.507  1.00  0.00     0.008 A 
HETATM   45  C33 UNL     1      -4.141  53.195 -10.881  1.00  0.00     0.001 A 
HETATM   46  C34 UNL     1      -4.442  51.882 -10.523  1.00  0.00     0.000 A 
HETATM   47  C35 UNL     1      -3.528  51.143  -9.778  1.00  0.00     0.001 A 
HETATM   48  C36 UNL     1      -2.312  51.705  -9.398  1.00  0.00     0.008 A 
ENDBRANCH  31  43
BRANCH  21  49
HETATM   49  O4  UNL     1       4.628  46.843  -6.749  1.00  0.00    -0.387 OA
HETATM   50  H30 UNL     1       3.754  46.917  -7.166  1.00  0.00     0.210 HD
ENDBRANCH  21  49
BRANCH  23  51
HETATM   51  O5  UNL     1       7.852  48.460  -6.845  1.00  0.00    -0.390 OA
HETATM   52  H32 UNL     1       7.687  48.979  -6.043  1.00  0.00     0.210 HD
ENDBRANCH  23  51
BRANCH   7  53
HETATM   53  O3  UNL     1       9.555  46.844 -11.268  1.00  0.00    -0.381 OA
HETATM   54  H12 UNL     1       9.624  47.605 -11.865  1.00  0.00     0.211 HD
ENDBRANCH   7  53
BRANCH   3  55
HETATM   55  C4  UNL     1       9.068  46.052  -5.168  1.00  0.00     0.172 C 
BRANCH  55  56
HETATM   56  O1  UNL     1      10.396  46.434  -4.853  1.00  0.00    -0.400 OA
HETATM   57  H8  UNL     1      10.528  46.342  -3.898  1.00  0.00     0.209 HD
ENDBRANCH  55  56
ENDBRANCH   3  55
TORSDOF 6
ENDMDL
