MODEL 1
REMARK minimizedAffinity -9.07492828
REMARK CNNscore 0.602590501
REMARK CNNaffinity 7.1401763
REMARK  4 active torsions:
REMARK  status: ('A' for Active; 'I' for Inactive)
REMARK    1  A    between atoms: C12_13  and  C13_14 
REMARK    2  A    between atoms: C20_21  and  C21_22 
REMARK    3  A    between atoms: C21_22  and  C22_23 
REMARK    4  A    between atoms: C23_24  and  O2_25 
ROOT
HETATM    1  C1  UNL     1      -0.270   6.069  11.085  1.00  0.00     0.015 C 
HETATM    2  C2  UNL     1      -0.628   6.430  12.329  1.00  0.00    -0.084 C 
HETATM    3  C3  UNL     1       0.398   6.721  13.399  1.00  0.00     0.034 C 
HETATM    4  C4  UNL     1       0.171   8.083  14.061  1.00  0.00     0.010 C 
HETATM    5  C5  UNL     1      -1.297   8.287  14.503  1.00  0.00     0.006 C 
HETATM    6  C6  UNL     1      -2.302   8.067  13.316  1.00  0.00    -0.032 C 
HETATM    7  C7  UNL     1      -2.059   9.060  12.143  1.00  0.00     0.016 C 
HETATM    8  C8  UNL     1      -3.777   8.281  13.778  1.00  0.00     0.013 C 
HETATM    9  C9  UNL     1      -3.915   8.637  15.256  1.00  0.00     0.039 C 
HETATM   10  C10 UNL     1      -3.046   9.848  15.648  1.00  0.00     0.066 C 
HETATM   11  C11 UNL     1      -3.616  11.122  15.003  1.00  0.00     0.047 C 
HETATM   12  O1  UNL     1      -3.233  10.037  17.071  1.00  0.00    -0.371 OA
HETATM   13  C12 UNL     1      -1.982   9.975  17.759  1.00  0.00     0.146 C 
HETATM   14  C17 UNL     1      -1.014   9.284  16.818  1.00  0.00     0.048 C 
HETATM   15  C18 UNL     1      -1.529   9.573  15.389  1.00  0.00    -0.006 C 
HETATM   16  C19 UNL     1      -0.756  10.800  14.857  1.00  0.00     0.019 C 
HETATM   17  C20 UNL     1      -2.091   6.603  12.738  1.00  0.00     0.027 C 
ENDROOT
BRANCH  17  18
HETATM   18  C21 UNL     1      -2.529   5.443  13.686  1.00  0.00     0.057 C 
BRANCH  18  19
HETATM   19  C22 UNL     1      -3.505   4.482  13.041  1.00  0.00     0.052 A 
HETATM   20  C23 UNL     1      -4.835   4.559  13.212  1.00  0.00     0.086 A 
HETATM   21  C24 UNL     1      -5.757   3.626  12.582  1.00  0.00     0.001 A 
HETATM   22  C25 UNL     1      -7.222   3.700  12.922  1.00  0.00     0.054 C 
HETATM   23  C26 UNL     1      -5.238   2.704  11.748  1.00  0.00     0.061 A 
HETATM   24  C27 UNL     1      -5.996   1.682  10.956  1.00  0.00     0.077 C 
HETATM   25  O3  UNL     1      -3.840   2.612  11.535  1.00  0.00    -0.279 OA
HETATM   26  C28 UNL     1      -2.945   3.405  12.193  1.00  0.00     0.297 A 
HETATM   27  O4  UNL     1      -1.737   3.226  12.076  1.00  0.00    -0.259 OA
BRANCH  20  28
HETATM   28  O2  UNL     1      -5.363   5.570  13.994  1.00  0.00    -0.359 OA
HETATM   29  H34 UNL     1      -6.295   5.712  13.767  1.00  0.00     0.217 HD
ENDBRANCH  20  28
ENDBRANCH  18  19
ENDBRANCH  17  18
BRANCH  13  30
HETATM   30  C13 UNL     1      -1.588  11.369  18.161  1.00  0.00     0.007 C 
HETATM   31  C14 UNL     1      -0.666  11.718  19.082  1.00  0.00    -0.089 C 
HETATM   32  C15 UNL     1       0.171  10.743  19.862  1.00  0.00     0.042 C 
HETATM   33  C16 UNL     1      -0.401  13.166  19.399  1.00  0.00     0.042 C 
ENDBRANCH  13  30
TORSDOF 4
ENDMDL
