MODEL 1
REMARK minimizedAffinity -9.8385601
REMARK  6 active torsions:
REMARK  status: ('A' for Active; 'I' for Inactive)
REMARK    1  A    between atoms: C2_2  and  C30_31 
REMARK    2  A    between atoms: C3_3  and  C4_4 
REMARK    3  A    between atoms: C4_4  and  C5_5 
REMARK    4  A    between atoms: C5_5  and  C6_6 
REMARK    5  A    between atoms: C6_6  and  C8_8 
REMARK    6  A    between atoms: C30_31  and  O3_33 
ROOT
HETATM    1  C8  UNL     1      -3.197  48.620 -19.664  1.00  0.00    -0.002 C 
HETATM    2  C9  UNL     1      -3.811  47.507 -20.553  1.00  0.00     0.007 C 
HETATM    3  C10 UNL     1      -3.523  47.903 -22.020  1.00  0.00     0.015 C 
HETATM    4  C11 UNL     1      -3.021  49.364 -21.953  1.00  0.00    -0.013 C 
HETATM    5  C12 UNL     1      -4.305  50.257 -21.924  1.00  0.00     0.021 C 
HETATM    6  C13 UNL     1      -2.172  49.904 -23.097  1.00  0.00    -0.070 C 
HETATM    7  C14 UNL     1      -2.340  49.502 -24.371  1.00  0.00    -0.022 C 
HETATM    8  C15 UNL     1      -1.631  50.100 -25.553  1.00  0.00     0.034 C 
HETATM    9  C16 UNL     1      -0.498  51.081 -25.180  1.00  0.00     0.013 C 
HETATM   10  C17 UNL     1       0.179  51.831 -26.391  1.00  0.00     0.018 C 
HETATM   11  C18 UNL     1       1.638  51.344 -26.544  1.00  0.00     0.023 C 
HETATM   12  C19 UNL     1      -0.526  51.582 -27.741  1.00  0.00     0.023 C 
HETATM   13  C20 UNL     1       0.263  53.350 -26.171  1.00  0.00     0.135 C 
HETATM   14  O1  UNL     1       0.137  54.149 -27.104  1.00  0.00    -0.297 OA
HETATM   15  C21 UNL     1       0.611  53.875 -24.798  1.00  0.00     0.080 C 
HETATM   16  C22 UNL     1       0.274  52.922 -23.662  1.00  0.00     0.017 C 
HETATM   17  C23 UNL     1      -0.916  51.986 -23.965  1.00  0.00    -0.031 C 
HETATM   18  C24 UNL     1      -2.186  52.825 -24.260  1.00  0.00     0.016 C 
HETATM   19  C25 UNL     1      -1.167  51.011 -22.745  1.00  0.00     0.024 C 
HETATM   20  C26 UNL     1      -1.469  51.711 -21.395  1.00  0.00     0.010 C 
HETATM   21  C27 UNL     1      -1.829  50.780 -20.211  1.00  0.00     0.011 C 
HETATM   22  C28 UNL     1      -2.194  49.339 -20.622  1.00  0.00    -0.029 C 
HETATM   23  C29 UNL     1      -0.879  48.511 -20.714  1.00  0.00     0.016 C 
ENDROOT
BRANCH   1  24
HETATM   24  C6  UNL     1      -2.718  48.195 -18.242  1.00  0.00    -0.014 C 
HETATM   25  C7  UNL     1      -2.886  46.667 -18.119  1.00  0.00     0.010 C 
BRANCH  24  26
HETATM   26  C5  UNL     1      -1.261  48.583 -17.884  1.00  0.00     0.008 C 
BRANCH  26  27
HETATM   27  C4  UNL     1      -1.124  49.883 -17.075  1.00  0.00     0.028 C 
BRANCH  27  28
HETATM   28  C3  UNL     1       0.018  49.909 -16.097  1.00  0.00    -0.013 C 
HETATM   29  C2  UNL     1       0.947  50.873 -15.920  1.00  0.00     0.008 C 
HETATM   30  C1  UNL     1       2.005  50.746 -14.860  1.00  0.00     0.055 C 
BRANCH  29  31
HETATM   31  C30 UNL     1       0.997  52.084 -16.779  1.00  0.00     0.171 C 
HETATM   32  O2  UNL     1       0.772  52.157 -17.974  1.00  0.00    -0.646 OA
BRANCH  31  33
HETATM   33  O3  UNL     1       1.352  53.179 -16.083  1.00  0.00    -0.773 OA
HETATM   34  H46 UNL     1       1.346  53.886 -16.762  1.00  0.00     0.167 HD
ENDBRANCH  31  33
ENDBRANCH  29  31
ENDBRANCH  27  28
ENDBRANCH  26  27
ENDBRANCH  24  26
ENDBRANCH   1  24
TORSDOF 6
ENDMDL
