MODEL 1
REMARK minimizedAffinity -7.56023932
REMARK CNNscore 0.592366695
REMARK CNNaffinity 6.80871439
REMARK  5 active torsions:
REMARK  status: ('A' for Active; 'I' for Inactive)
REMARK    1  A    between atoms: C2_2  and  C4_4 
REMARK    2  A    between atoms: C7_7  and  C8_8 
REMARK    3  A    between atoms: C8_8  and  O2_10 
REMARK    4  A    between atoms: C11_13  and  C12_14 
REMARK    5  A    between atoms: C12_14  and  O4_16 
ROOT
HETATM    1  C4  UNL     1       1.130   8.171  10.664  1.00  0.00     0.019 C 
HETATM    2  C5  UNL     1       2.116   7.015  10.485  1.00  0.00     0.011 C 
HETATM    3  C6  UNL     1       2.931   7.073  11.771  1.00  0.00     0.021 C 
HETATM    4  C7  UNL     1       1.890   7.316  12.889  1.00  0.00     0.050 C 
HETATM    5  C9  UNL     1       1.421   5.963  13.452  1.00  0.00     0.022 C 
HETATM    6  C10 UNL     1       0.110   6.032  14.232  1.00  0.00     0.023 C 
HETATM    7  C11 UNL     1      -1.075   6.665  13.457  1.00  0.00     0.057 C 
HETATM    8  C13 UNL     1      -0.648   8.030  12.818  1.00  0.00     0.011 C 
HETATM    9  C14 UNL     1      -1.799   8.661  12.024  1.00  0.00     0.007 C 
HETATM   10  C15 UNL     1      -3.081   8.841  12.849  1.00  0.00     0.006 C 
HETATM   11  C16 UNL     1      -3.528   7.550  13.578  1.00  0.00     0.003 C 
HETATM   12  C17 UNL     1      -4.957   7.627  14.277  1.00  0.00    -0.035 C 
HETATM   13  C18 UNL     1      -5.023   8.752  15.337  1.00  0.00     0.016 C 
HETATM   14  C19 UNL     1      -6.028   7.937  13.186  1.00  0.00     0.017 C 
HETATM   15  C20 UNL     1      -7.470   7.792  13.652  1.00  0.00     0.080 C 
HETATM   16  C21 UNL     1      -7.726   6.442  14.274  1.00  0.00     0.135 C 
HETATM   17  O5  UNL     1      -8.753   5.824  13.985  1.00  0.00    -0.297 OA
HETATM   18  C22 UNL     1      -6.740   5.947  15.346  1.00  0.00     0.017 C 
HETATM   19  C23 UNL     1      -7.093   6.627  16.677  1.00  0.00     0.023 C 
HETATM   20  C24 UNL     1      -6.983   4.427  15.533  1.00  0.00     0.023 C 
HETATM   21  C25 UNL     1      -5.274   6.192  14.844  1.00  0.00     0.009 C 
HETATM   22  C26 UNL     1      -4.189   5.734  15.838  1.00  0.00     0.007 C 
HETATM   23  C27 UNL     1      -2.807   5.655  15.185  1.00  0.00     0.011 C 
HETATM   24  C28 UNL     1      -2.351   6.951  14.450  1.00  0.00    -0.022 C 
HETATM   25  C29 UNL     1      -1.955   7.944  15.594  1.00  0.00     0.017 C 
HETATM   26  C30 UNL     1       0.775   8.175  12.191  1.00  0.00     0.018 C 
ENDROOT
BRANCH   4  27
HETATM   27  C8  UNL     1       2.517   8.099  14.042  1.00  0.00     0.149 C 
HETATM   28  O1  UNL     1       2.278   9.256  14.348  1.00  0.00    -0.649 OA
BRANCH  27  29
HETATM   29  O2  UNL     1       3.353   7.367  14.804  1.00  0.00    -0.776 OA
HETATM   30  H11 UNL     1       3.636   7.987  15.508  1.00  0.00     0.167 HD
ENDBRANCH  27  29
ENDBRANCH   4  27
BRANCH   1  31
HETATM   31  C2  UNL     1       0.123   8.397   9.553  1.00  0.00    -0.088 C 
HETATM   32  C1  UNL     1      -0.995   9.111   9.791  1.00  0.00     0.014 C 
HETATM   33  C3  UNL     1       0.413   7.935   8.152  1.00  0.00     0.043 C 
ENDBRANCH   1  31
BRANCH   7  34
HETATM   34  C12 UNL     1      -1.474   5.644  12.360  1.00  0.00     0.149 C 
HETATM   35  O3  UNL     1      -1.064   5.558  11.214  1.00  0.00    -0.649 OA
BRANCH  34  36
HETATM   36  O4  UNL     1      -2.431   4.783  12.734  1.00  0.00    -0.776 OA
HETATM   37  H16 UNL     1      -2.580   4.249  11.924  1.00  0.00     0.167 HD
ENDBRANCH  34  36
ENDBRANCH   7  34
TORSDOF 5
ENDMDL
