MODEL 1
REMARK minimizedAffinity -9.12414169
REMARK  6 active torsions:
REMARK  status: ('A' for Active; 'I' for Inactive)
REMARK    1  A    between atoms: C2_2  and  C30_32 
REMARK    2  A    between atoms: C3_3  and  C4_4 
REMARK    3  A    between atoms: C4_4  and  C5_5 
REMARK    4  A    between atoms: C5_5  and  C6_6 
REMARK    5  A    between atoms: C6_6  and  C8_8 
REMARK    6  A    between atoms: C30_32  and  O4_34 
ROOT
HETATM    1  C8  UNL     1       6.750   9.011  14.493  1.00  0.00    -0.002 C 
HETATM    2  C9  UNL     1       7.777   8.209  13.692  1.00  0.00     0.007 C 
HETATM    3  C10 UNL     1       6.911   7.356  12.783  1.00  0.00     0.015 C 
HETATM    4  C11 UNL     1       5.868   8.338  12.199  1.00  0.00    -0.005 C 
HETATM    5  C12 UNL     1       6.513   9.062  10.981  1.00  0.00     0.021 C 
HETATM    6  C13 UNL     1       4.608   7.609  11.682  1.00  0.00    -0.000 C 
HETATM    7  C14 UNL     1       3.340   7.939  12.031  1.00  0.00    -0.060 C 
HETATM    8  C15 UNL     1       3.113   8.994  13.094  1.00  0.00     0.036 C 
HETATM    9  C16 UNL     1       4.253   9.041  14.097  1.00  0.00     0.015 C 
HETATM   10  C17 UNL     1       5.615   9.343  13.433  1.00  0.00    -0.028 C 
HETATM   11  C18 UNL     1       5.614  10.824  12.985  1.00  0.00     0.016 C 
HETATM   12  C19 UNL     1       2.064   7.307  11.430  1.00  0.00    -0.014 C 
HETATM   13  C20 UNL     1       1.469   6.347  12.498  1.00  0.00     0.020 C 
HETATM   14  C21 UNL     1       1.007   8.411  11.122  1.00  0.00     0.021 C 
HETATM   15  C22 UNL     1       0.065   8.035   9.993  1.00  0.00     0.080 C 
HETATM   16  C23 UNL     1       0.853   7.919   8.709  1.00  0.00     0.135 C 
HETATM   17  O1  UNL     1       0.373   8.326   7.651  1.00  0.00    -0.297 OA
HETATM   18  C24 UNL     1       2.247   7.267   8.784  1.00  0.00     0.018 C 
HETATM   19  C25 UNL     1       2.355   6.307   7.577  1.00  0.00     0.023 C 
HETATM   20  C26 UNL     1       3.291   8.378   8.603  1.00  0.00     0.023 C 
HETATM   21  C27 UNL     1       2.351   6.467  10.134  1.00  0.00     0.020 C 
HETATM   22  C28 UNL     1       3.622   5.639  10.314  1.00  0.00     0.090 C 
HETATM   23  C29 UNL     1       4.811   6.464  10.724  1.00  0.00     0.157 C 
HETATM   24  O2  UNL     1       5.928   6.150  10.318  1.00  0.00    -0.293 OA
ENDROOT
BRANCH   1  25
HETATM   25  C6  UNL     1       7.369  10.164  15.333  1.00  0.00    -0.014 C 
HETATM   26  C7  UNL     1       8.604  10.776  14.648  1.00  0.00     0.010 C 
BRANCH  25  27
HETATM   27  C5  UNL     1       7.733   9.765  16.786  1.00  0.00     0.008 C 
BRANCH  27  28
HETATM   28  C4  UNL     1       8.129  10.923  17.710  1.00  0.00     0.028 C 
BRANCH  28  29
HETATM   29  C3  UNL     1       9.558  10.784  18.165  1.00  0.00    -0.013 C 
HETATM   30  C2  UNL     1      10.086  11.201  19.334  1.00  0.00     0.008 C 
HETATM   31  C1  UNL     1       9.329  11.853  20.452  1.00  0.00     0.055 C 
BRANCH  30  32
HETATM   32  C30 UNL     1      11.535  11.020  19.621  1.00  0.00     0.171 C 
HETATM   33  O3  UNL     1      12.146  11.565  20.525  1.00  0.00    -0.646 OA
BRANCH  32  34
HETATM   34  O4  UNL     1      12.162  10.181  18.781  1.00  0.00    -0.773 OA
HETATM   35  H44 UNL     1      13.085  10.180  19.108  1.00  0.00     0.167 HD
ENDBRANCH  32  34
ENDBRANCH  30  32
ENDBRANCH  28  29
ENDBRANCH  27  28
ENDBRANCH  25  27
ENDBRANCH   1  25
TORSDOF 6
ENDMDL
