MODEL 1
REMARK minimizedAffinity -9.13560772
REMARK CNNscore 0.527644813
REMARK CNNaffinity 6.99839401
REMARK  18 active torsions:
REMARK  status: ('A' for Active; 'I' for Inactive)
REMARK    1  A    between atoms: C2_2  and  C4_4 
REMARK    2  A    between atoms: C4_4  and  N1_5 
REMARK    3  A    between atoms: C4_4  and  C30_38 
REMARK       I    between atoms: N1_5  and  C5_6 
REMARK    4  A    between atoms: C5_6  and  C6_8 
REMARK    5  A    between atoms: C6_8  and  C7_9 
REMARK    6  A    between atoms: C7_9  and  C8_10 
REMARK    7  A    between atoms: C8_10  and  O3_12 
REMARK    8  A    between atoms: O3_12  and  C9_13 
REMARK    9  A    between atoms: C9_13  and  C10_14 
REMARK   10  A    between atoms: C10_14  and  C11_16 
REMARK   11  A    between atoms: C11_16  and  O5_17 
REMARK   12  A    between atoms: C26_33  and  O7_34 
REMARK       I    between atoms: C30_38  and  N2_40 
REMARK   13  A    between atoms: N2_40  and  C31_41 
REMARK   14  A    between atoms: C31_41  and  C32_42 
REMARK   15  A    between atoms: C32_42  and  C33_43 
REMARK   16  A    between atoms: C32_42  and  C35_47 
REMARK   17  A    between atoms: C33_43  and  C34_44 
REMARK   18  A    between atoms: C34_44  and  O10_46 
ROOT
HETATM    1  C8  UNL     1       1.201  10.242  17.662  1.00  0.00     0.259 C 
HETATM    2  O2  UNL     1       2.219   9.573  17.762  1.00  0.00    -0.265 OA
ENDROOT
BRANCH   1   3
HETATM    3  C7  UNL     1       0.946  11.523  18.417  1.00  0.00     0.120 C 
BRANCH   3   4
HETATM    4  C6  UNL     1       0.598  11.289  19.882  1.00  0.00     0.112 C 
BRANCH   4   5
HETATM    5  C5  UNL     1       1.743  10.601  20.594  1.00  0.00     0.218 C 
HETATM    6  N1  UNL     1       2.936  11.280  20.542  1.00  0.00    -0.347 N 
HETATM    7  H9  UNL     1       3.010  12.137  20.008  1.00  0.00     0.163 HD
HETATM    8  O1  UNL     1       1.599   9.531  21.175  1.00  0.00    -0.274 OA
BRANCH   6   9
HETATM    9  C4  UNL     1       4.173  10.738  21.131  1.00  0.00     0.179 C 
BRANCH   9  10
HETATM   10  C2  UNL     1       4.203  10.894  22.672  1.00  0.00     0.009 C 
HETATM   11  C1  UNL     1       5.617  11.211  23.180  1.00  0.00     0.012 C 
HETATM   12  C3  UNL     1       3.714   9.636  23.401  1.00  0.00     0.012 C 
ENDBRANCH   9  10
BRANCH   9  13
HETATM   13  C30 UNL     1       5.385  11.429  20.442  1.00  0.00     0.240 C 
HETATM   14  O8  UNL     1       6.016  10.939  19.511  1.00  0.00    -0.271 OA
HETATM   15  N2  UNL     1       5.630  12.713  20.895  1.00  0.00    -0.359 N 
HETATM   16  H43 UNL     1       4.920  13.120  21.496  1.00  0.00     0.162 HD
BRANCH  15  17
HETATM   17  C31 UNL     1       6.503  13.633  20.185  1.00  0.00     0.132 C 
BRANCH  17  18
HETATM   18  C32 UNL     1       7.676  14.096  21.077  1.00  0.00     0.046 C 
BRANCH  18  19
HETATM   19  C33 UNL     1       8.421  12.887  21.658  1.00  0.00     0.120 C 
BRANCH  19  20
HETATM   20  C34 UNL     1       9.779  12.718  21.035  1.00  0.00     0.140 C 
HETATM   21  O9  UNL     1      10.562  13.599  20.726  1.00  0.00    -0.650 OA
BRANCH  20  22
HETATM   22  O10 UNL     1      10.061  11.427  20.772  1.00  0.00    -0.776 OA
HETATM   23  H49 UNL     1      10.952  11.462  20.364  1.00  0.00     0.167 HD
ENDBRANCH  20  22
ENDBRANCH  19  20
ENDBRANCH  18  19
BRANCH  18  24
HETATM   24  C35 UNL     1       7.163  15.052  22.153  1.00  0.00    -0.052 A 
HETATM   25  C36 UNL     1       5.856  14.972  22.657  1.00  0.00     0.007 A 
HETATM   26  C37 UNL     1       5.401  15.892  23.604  1.00  0.00     0.001 A 
HETATM   27  C38 UNL     1       6.243  16.907  24.053  1.00  0.00     0.000 A 
HETATM   28  C39 UNL     1       7.540  17.002  23.558  1.00  0.00     0.001 A 
HETATM   29  C40 UNL     1       7.999  16.081  22.615  1.00  0.00     0.007 A 
ENDBRANCH  18  24
ENDBRANCH  17  18
ENDBRANCH  15  17
ENDBRANCH   9  13
ENDBRANCH   6   9
ENDBRANCH   4   5
ENDBRANCH   3   4
ENDBRANCH   1   3
BRANCH   1  30
HETATM   30  O3  UNL     1       0.165   9.951  16.824  1.00  0.00    -0.314 OA
BRANCH  30  31
HETATM   31  C9  UNL     1       0.290   8.696  16.145  1.00  0.00     0.260 C 
BRANCH  31  32
HETATM   32  C10 UNL     1      -1.029   8.222  15.548  1.00  0.00     0.185 C 
HETATM   33  O4  UNL     1      -2.038   8.051  16.247  1.00  0.00    -0.292 OA
BRANCH  32  34
HETATM   34  C11 UNL     1      -1.107   7.938  14.034  1.00  0.00     0.128 C 
HETATM   35  C12 UNL     1      -2.067   8.811  13.194  1.00  0.00     0.047 C 
HETATM   36  C13 UNL     1      -1.406   8.983  11.810  1.00  0.00     0.009 C 
HETATM   37  C14 UNL     1      -0.211   8.039  11.835  1.00  0.00     0.002 C 
HETATM   38  C15 UNL     1       0.921   8.254  10.822  1.00  0.00    -0.002 C 
HETATM   39  C28 UNL     1       0.265   8.091  13.305  1.00  0.00     0.001 C 
HETATM   40  C16 UNL     1       0.374   8.278   9.379  1.00  0.00     0.010 C 
HETATM   41  C25 UNL     1       1.986   7.113  11.017  1.00  0.00     0.031 C 
HETATM   42  C17 UNL     1       1.475   8.302   8.319  1.00  0.00     0.035 C 
HETATM   43  C18 UNL     1       2.437   7.170   8.585  1.00  0.00    -0.068 C 
HETATM   44  C19 UNL     1       2.536   6.151   7.713  1.00  0.00     0.053 C 
HETATM   45  C23 UNL     1       3.141   7.217   9.950  1.00  0.00    -0.014 C 
HETATM   46  C20 UNL     1       3.259   4.909   8.072  1.00  0.00     0.149 C 
HETATM   47  O6  UNL     1       3.419   4.033   7.225  1.00  0.00    -0.293 OA
HETATM   48  C21 UNL     1       3.675   4.737   9.511  1.00  0.00     0.084 C 
HETATM   49  C22 UNL     1       4.180   6.063  10.051  1.00  0.00     0.022 C 
HETATM   50  C24 UNL     1       3.962   8.528  10.058  1.00  0.00     0.020 C 
HETATM   51  C26 UNL     1       2.440   6.963  12.498  1.00  0.00     0.124 C 
HETATM   52  C27 UNL     1       1.267   6.932  13.501  1.00  0.00     0.045 C 
HETATM   53  C29 UNL     1       0.910   9.447  13.694  1.00  0.00     0.019 C 
BRANCH  34  54
HETATM   54  O5  UNL     1      -1.577   6.583  13.916  1.00  0.00    -0.381 OA
HETATM   55  H16 UNL     1      -1.149   6.072  14.634  1.00  0.00     0.211 HD
ENDBRANCH  34  54
BRANCH  51  56
HETATM   56  O7  UNL     1       3.350   7.988  12.866  1.00  0.00    -0.395 OA
HETATM   57  H37 UNL     1       3.691   7.776  13.753  1.00  0.00     0.210 HD
ENDBRANCH  51  56
ENDBRANCH  32  34
ENDBRANCH  31  32
ENDBRANCH  30  31
ENDBRANCH   1  30
TORSDOF 18
ENDMDL
