MODEL 1
REMARK minimizedAffinity -6.8614459
REMARK CNNscore 0.603592932
REMARK CNNaffinity 5.99471235
REMARK  9 active torsions:
REMARK  status: ('A' for Active; 'I' for Inactive)
REMARK    1  A    between atoms: O1_2  and  C2_3 
REMARK    2  A    between atoms: C2_3  and  C3_4 
REMARK    3  A    between atoms: C3_4  and  N1_5 
REMARK       I    between atoms: N1_5  and  C4_6 
REMARK    4  A    between atoms: C4_6  and  C5_8 
REMARK    5  A    between atoms: C5_8  and  C7_10 
REMARK    6  A    between atoms: C15_20  and  C16_21 
REMARK    7  A    between atoms: C16_21  and  O3_22 
REMARK    8  A    between atoms: O3_22  and  C17_23 
REMARK    9  A    between atoms: C26_34  and  O4_35 
ROOT
HETATM    1  C7  UNL     1      -9.272  -6.586  -4.421  1.00  0.00     0.027 C 
HETATM    2  C8  UNL     1      -9.241  -7.924  -5.191  1.00  0.00     0.009 C 
HETATM    3  C9  UNL     1      -9.179  -9.172  -4.310  1.00  0.00     0.010 C 
HETATM    4  C10 UNL     1      -8.292  -9.028  -3.057  1.00  0.00    -0.033 C 
HETATM    5  C11 UNL     1      -6.821  -8.812  -3.504  1.00  0.00     0.016 C 
HETATM    6  C12 UNL     1      -8.334 -10.395  -2.291  1.00  0.00     0.058 C 
HETATM    7  C13 UNL     1      -7.961 -10.201  -0.870  1.00  0.00     0.008 A 
HETATM    8  C14 UNL     1      -8.365  -9.117  -0.131  1.00  0.00     0.027 A 
HETATM    9  N2  UNL     1      -7.926  -9.091   1.172  1.00  0.00    -0.354 N 
ATOM     10  H2  UNL     1      -8.111  -8.344   1.842  1.00  0.00     0.166 HD
HETATM   11  C15 UNL     1      -7.225 -10.185   1.420  1.00  0.00     0.076 A 
HETATM   12  S1  UNL     1      -7.021 -11.249   0.070  1.00  0.00    -0.077 SA
HETATM   13  C23 UNL     1      -9.229  -8.050  -0.727  1.00  0.00     0.040 C 
HETATM   14  C24 UNL     1     -10.706  -8.444  -0.610  1.00  0.00     0.017 C 
HETATM   15  C25 UNL     1      -8.752  -7.763  -2.199  1.00  0.00     0.033 C 
HETATM   16  C26 UNL     1      -9.732  -6.833  -2.965  1.00  0.00     0.128 C 
ENDROOT
BRANCH   1  17
HETATM   17  C5  UNL     1     -10.119  -5.518  -5.178  1.00  0.00     0.080 C 
HETATM   18  C6  UNL     1      -9.898  -5.545  -6.697  1.00  0.00     0.020 C 
BRANCH  17  19
HETATM   19  C4  UNL     1      -9.869  -4.081  -4.718  1.00  0.00     0.222 C 
HETATM   20  N1  UNL     1      -8.615  -3.581  -5.014  1.00  0.00    -0.359 N 
HETATM   21  H8  UNL     1      -8.125  -4.014  -5.787  1.00  0.00     0.162 HD
HETATM   22  O2  UNL     1     -10.745  -3.409  -4.184  1.00  0.00    -0.273 OA
BRANCH  20  23
HETATM   23  C3  UNL     1      -8.343  -2.162  -4.839  1.00  0.00     0.148 C 
BRANCH  23  24
HETATM   24  C2  UNL     1      -7.143  -1.716  -5.683  1.00  0.00     0.186 C 
BRANCH  24  25
HETATM   25  O1  UNL     1      -7.297  -0.350  -6.096  1.00  0.00    -0.394 OA
HETATM   26  C1  UNL     1      -8.622  -0.043  -6.509  1.00  0.00     0.201 C 
ENDBRANCH  24  25
ENDBRANCH  23  24
ENDBRANCH  20  23
ENDBRANCH  17  19
ENDBRANCH   1  17
BRANCH  16  27
HETATM   27  O4  UNL     1      -9.849  -5.621  -2.233  1.00  0.00    -0.395 OA
HETATM   28  H35 UNL     1      -9.037  -5.096  -2.351  1.00  0.00     0.210 HD
ENDBRANCH  16  27
BRANCH  11  29
HETATM   29  C16 UNL     1      -6.594 -10.520   2.739  1.00  0.00     0.240 C 
BRANCH  29  30
HETATM   30  O3  UNL     1      -5.170 -10.380   2.648  1.00  0.00    -0.345 OA
BRANCH  30  31
HETATM   31  C17 UNL     1      -4.460 -10.117   3.786  1.00  0.00     0.070 A 
HETATM   32  C18 UNL     1      -3.194  -9.533   3.848  1.00  0.00     0.037 A 
HETATM   33  C19 UNL     1      -2.578  -9.316   5.084  1.00  0.00     0.004 A 
HETATM   34  C20 UNL     1      -3.230  -9.672   6.263  1.00  0.00     0.024 A 
HETATM   35  C21 UNL     1      -4.503 -10.235   6.202  1.00  0.00     0.036 A 
HETATM   36 CL1  UNL     1      -5.316 -10.665   7.656  1.00  0.00    -0.084 Cl
HETATM   37  C22 UNL     1      -5.118 -10.453   4.971  1.00  0.00     0.060 A 
ENDBRANCH  30  31
ENDBRANCH  29  30
ENDBRANCH  11  29
TORSDOF 9
ENDMDL
