MODEL 1
REMARK minimizedAffinity -6.13320494
REMARK CNNscore 0.714372993
REMARK CNNaffinity 6.76351166
REMARK  13 active torsions:
REMARK  status: ('A' for Active; 'I' for Inactive)
REMARK    1  A    between atoms: C2_2  and  C3_3 
REMARK    2  A    between atoms: C3_3  and  C4_4 
REMARK    3  A    between atoms: C4_4  and  O2_6 
REMARK    4  A    between atoms: O2_6  and  C5_7 
REMARK    5  A    between atoms: C7_9  and  C8_10 
REMARK    6  A    between atoms: C15_18  and  O4_20 
REMARK    7  A    between atoms: C17_21  and  O5_22 
REMARK    8  A    between atoms: C20_25  and  O6_27 
REMARK    9  A    between atoms: O6_27  and  C22_28 
REMARK   10  A    between atoms: C22_28  and  C23_30 
REMARK   11  A    between atoms: C23_30  and  C24_31 
REMARK   12  A    between atoms: C27_34  and  O8_36 
REMARK   13  A    between atoms: O8_36  and  C29_37 
ROOT
HETATM    1  C5  UNL     1       1.189  10.769  18.228  1.00  0.00     0.167 C 
HETATM    2  C6  UNL     1       2.213  10.822  17.093  1.00  0.00     0.041 C 
HETATM    3  C7  UNL     1       1.717  10.237  15.761  1.00  0.00    -0.002 C 
HETATM    4  C11 UNL     1       0.186   9.956  15.656  1.00  0.00     0.032 C 
HETATM    5  C12 UNL     1      -0.134   8.445  15.817  1.00  0.00     0.161 C 
HETATM    6  O3  UNL     1      -1.348   8.347  16.557  1.00  0.00    -0.377 OA
HETATM    7  C13 UNL     1      -1.738   9.589  17.101  1.00  0.00     0.132 C 
HETATM    8  C14 UNL     1      -3.236   9.841  16.827  1.00  0.00     0.072 C 
HETATM    9  C15 UNL     1      -3.832   9.952  15.393  1.00  0.00     0.082 C 
HETATM   10  C16 UNL     1      -3.230  11.067  14.528  1.00  0.00     0.049 C 
HETATM   11  C17 UNL     1      -4.063   8.605  14.628  1.00  0.00     0.152 C 
HETATM   12  C18 UNL     1      -2.966   7.550  14.485  1.00  0.00     0.038 C 
HETATM   13  C19 UNL     1      -1.663   7.961  13.779  1.00  0.00     0.043 C 
HETATM   14  C20 UNL     1      -0.323   7.603  14.507  1.00  0.00     0.093 C 
HETATM   15  C21 UNL     1      -0.333   6.085  14.814  1.00  0.00     0.049 C 
HETATM   16  C26 UNL     1      -0.762  10.679  16.645  1.00  0.00     0.059 C 
HETATM   17  C27 UNL     1      -0.095  11.516  17.792  1.00  0.00     0.100 C 
HETATM   18  C28 UNL     1      -1.090  11.822  18.930  1.00  0.00     0.050 C 
ENDROOT
BRANCH  14  19
HETATM   19  O6  UNL     1       0.699   7.890  13.504  1.00  0.00    -0.308 OA
BRANCH  19  20
HETATM   20  C22 UNL     1       0.636   7.360  12.254  1.00  0.00     0.259 C 
HETATM   21  O7  UNL     1       0.685   6.170  11.983  1.00  0.00    -0.265 OA
BRANCH  20  22
HETATM   22  C23 UNL     1       0.523   8.467  11.231  1.00  0.00     0.111 C 
BRANCH  22  23
HETATM   23  C24 UNL     1       0.685   7.923   9.816  1.00  0.00     0.005 C 
HETATM   24  C25 UNL     1      -0.241   8.629   8.839  1.00  0.00     0.005 C 
ENDBRANCH  22  23
ENDBRANCH  20  22
ENDBRANCH  19  20
ENDBRANCH  14  19
BRANCH   3  25
HETATM   25  C8  UNL     1       2.264  10.987  14.506  1.00  0.00    -0.018 C 
HETATM   26  C9  UNL     1       2.817  12.383  14.793  1.00  0.00     0.010 C 
HETATM   27  C10 UNL     1       3.317  10.158  13.761  1.00  0.00     0.010 C 
ENDBRANCH   3  25
BRANCH  11  28
HETATM   28  O5  UNL     1      -4.573   8.888  13.313  1.00  0.00    -0.393 OA
HETATM   29  H29 UNL     1      -5.355   9.452  13.470  1.00  0.00     0.210 HD
ENDBRANCH  11  28
BRANCH  17  30
HETATM   30  O8  UNL     1       0.222  12.794  17.122  1.00  0.00    -0.308 OA
BRANCH  30  31
HETATM   31  C29 UNL     1      -0.587  13.885  17.172  1.00  0.00     0.255 C 
HETATM   32  C30 UNL     1      -0.050  14.882  18.155  1.00  0.00     0.126 C 
HETATM   33  O9  UNL     1      -1.612  14.061  16.536  1.00  0.00    -0.266 OA
ENDBRANCH  30  31
ENDBRANCH  17  30
BRANCH   9  34
HETATM   34  O4  UNL     1      -5.209  10.426  15.599  1.00  0.00    -0.388 OA
HETATM   35  H27 UNL     1      -5.170  11.283  16.061  1.00  0.00     0.210 HD
ENDBRANCH   9  34
BRANCH   1  36
HETATM   36  O2  UNL     1       1.835  11.346  19.379  1.00  0.00    -0.313 OA
BRANCH  36  37
HETATM   37  C4  UNL     1       2.326  10.476  20.300  1.00  0.00     0.259 C 
HETATM   38  O1  UNL     1       2.674   9.326  20.061  1.00  0.00    -0.265 OA
BRANCH  37  39
HETATM   39  C3  UNL     1       2.462  11.124  21.655  1.00  0.00     0.111 C 
BRANCH  39  40
HETATM   40  C2  UNL     1       2.948  10.155  22.726  1.00  0.00     0.005 C 
HETATM   41  C1  UNL     1       4.387  10.441  23.126  1.00  0.00     0.005 C 
ENDBRANCH  39  40
ENDBRANCH  37  39
ENDBRANCH  36  37
ENDBRANCH   1  36
TORSDOF 13
ENDMDL
