MODEL 1
REMARK minimizedAffinity -8.26639462
REMARK CNNscore 0.698711693
REMARK CNNaffinity 6.71395254
REMARK  10 active torsions:
REMARK  status: ('A' for Active; 'I' for Inactive)
REMARK    1  A    between atoms: N1_6  and  O1_8 
REMARK    2  A    between atoms: O1_8  and  C6_9 
REMARK    3  A    between atoms: C6_9  and  C7_10 
REMARK       I    between atoms: C7_10  and  N2_12 
REMARK    4  A    between atoms: N2_12  and  C8_13 
REMARK    5  A    between atoms: C8_13  and  C9_14 
REMARK    6  A    between atoms: C20_27  and  O3_28 
REMARK    7  A    between atoms: C27_35  and  O4_36 
REMARK    8  A    between atoms: C27_35  and  C28_37 
REMARK    9  A    between atoms: C28_37  and  C29_39 
REMARK   10  A    between atoms: C29_39  and  O6_40 
ROOT
HETATM    1  C1  UNL     1      -9.315  48.508 -31.357  1.00  0.00     0.020 C 
HETATM    2  C2  UNL     1      -8.714  47.099 -31.131  1.00  0.00    -0.014 C 
HETATM    3  C3  UNL     1      -8.886  46.720 -29.637  1.00  0.00     0.020 C 
HETATM    4  C4  UNL     1      -8.103  47.614 -28.680  1.00  0.00     0.060 C 
HETATM    5  C5  UNL     1      -6.668  47.849 -29.107  1.00  0.00     0.032 C 
HETATM    6  N1  UNL     1      -5.876  48.351 -28.206  1.00  0.00    -0.271 N 
ATOM      7  H1  UNL     1      -6.163  48.568 -27.251  1.00  0.00     0.194 HD
HETATM    8  C14 UNL     1      -6.288  47.495 -30.503  1.00  0.00     0.030 C 
HETATM    9  C15 UNL     1      -7.205  47.137 -31.420  1.00  0.00    -0.069 C 
HETATM   10  C16 UNL     1      -6.730  46.649 -32.770  1.00  0.00     0.035 C 
HETATM   11  C17 UNL     1      -7.719  46.923 -33.893  1.00  0.00     0.010 C 
HETATM   12  C18 UNL     1      -9.152  46.440 -33.589  1.00  0.00    -0.002 C 
HETATM   13  C19 UNL     1      -9.372  46.035 -32.101  1.00  0.00     0.031 C 
HETATM   14  C20 UNL     1     -10.873  45.722 -31.893  1.00  0.00     0.124 C 
HETATM   15  C21 UNL     1     -11.358  44.634 -32.865  1.00  0.00     0.045 C 
HETATM   16  C22 UNL     1     -11.099  44.929 -34.365  1.00  0.00     0.001 C 
HETATM   17  C23 UNL     1     -12.098  46.006 -34.825  1.00  0.00     0.019 C 
HETATM   18  C24 UNL     1      -9.636  45.374 -34.591  1.00  0.00     0.002 C 
HETATM   19  C25 UNL     1      -8.827  44.066 -34.607  1.00  0.00     0.009 C 
HETATM   20  C26 UNL     1      -9.813  42.948 -34.963  1.00  0.00     0.047 C 
HETATM   21  C27 UNL     1     -11.174  43.624 -35.220  1.00  0.00     0.128 C 
ENDROOT
BRANCH   6  22
HETATM   22  O1  UNL     1      -4.579  48.559 -28.703  1.00  0.00    -0.271 OA
BRANCH  22  23
HETATM   23  C6  UNL     1      -3.660  48.421 -27.633  1.00  0.00     0.303 C 
BRANCH  23  24
HETATM   24  C7  UNL     1      -3.356  49.763 -26.971  1.00  0.00     0.244 C 
HETATM   25  O2  UNL     1      -3.676  50.052 -25.822  1.00  0.00    -0.271 OA
HETATM   26  N2  UNL     1      -2.668  50.634 -27.799  1.00  0.00    -0.355 N 
HETATM   27  H10 UNL     1      -2.601  50.416 -28.784  1.00  0.00     0.162 HD
BRANCH  26  28
HETATM   28  C8  UNL     1      -2.365  51.987 -27.390  1.00  0.00     0.161 C 
BRANCH  28  29
HETATM   29  C9  UNL     1      -0.918  52.122 -26.998  1.00  0.00    -0.038 A 
HETATM   30  C10 UNL     1       0.094  51.780 -27.901  1.00  0.00     0.025 A 
HETATM   31  C11 UNL     1       1.415  51.902 -27.500  1.00  0.00     0.088 A 
HETATM   32  N3  UNL     1       1.791  52.333 -26.275  1.00  0.00    -0.375 N 
HETATM   33  C12 UNL     1       0.800  52.651 -25.416  1.00  0.00     0.088 A 
ATOM     34  H3  UNL     1       2.773  52.414 -26.014  1.00  0.00     0.164 HD
HETATM   35  C13 UNL     1      -0.551  52.559 -25.722  1.00  0.00     0.025 A 
ENDBRANCH  28  29
ENDBRANCH  26  28
ENDBRANCH  23  24
ENDBRANCH  22  23
ENDBRANCH   6  22
BRANCH  14  36
HETATM   36  O3  UNL     1     -11.106  45.216 -30.582  1.00  0.00    -0.395 OA
HETATM   37  H25 UNL     1     -12.063  45.057 -30.492  1.00  0.00     0.210 HD
ENDBRANCH  14  36
BRANCH  21  38
HETATM   38  O4  UNL     1     -12.222  42.775 -34.759  1.00  0.00    -0.381 OA
HETATM   39  H36 UNL     1     -12.002  41.856 -34.998  1.00  0.00     0.211 HD
ENDBRANCH  21  38
BRANCH  21  40
HETATM   40  C28 UNL     1     -11.346  43.882 -36.740  1.00  0.00     0.184 C 
HETATM   41  O5  UNL     1     -12.346  44.426 -37.219  1.00  0.00    -0.292 OA
BRANCH  40  42
HETATM   42  C29 UNL     1     -10.213  43.436 -37.662  1.00  0.00     0.245 C 
BRANCH  42  43
HETATM   43  O6  UNL     1      -9.477  44.547 -38.158  1.00  0.00    -0.393 OA
HETATM   44  H39 UNL     1      -9.634  45.282 -37.531  1.00  0.00     0.209 HD
ENDBRANCH  42  43
ENDBRANCH  40  42
ENDBRANCH  21  40
TORSDOF 10
ENDMDL
