MODEL 1
REMARK minimizedAffinity -6.98470688
REMARK CNNscore 0.627440572
REMARK CNNaffinity 6.31225967
REMARK  8 active torsions:
REMARK  status: ('A' for Active; 'I' for Inactive)
REMARK    1  A    between atoms: C2_2  and  C3_3 
REMARK    2  A    between atoms: C2_2  and  C9_11 
REMARK    3  A    between atoms: C3_3  and  C4_4 
REMARK    4  A    between atoms: C4_4  and  C5_5 
REMARK    5  A    between atoms: C5_5  and  O1_6 
REMARK    6  A    between atoms: C5_5  and  C6_7 
REMARK    7  A    between atoms: C6_7  and  O2_10 
REMARK    8  A    between atoms: C30_34  and  O5_35 
ROOT
HETATM    1  C9  UNL     1      -0.577  11.405  17.704  1.00  0.00    -0.001 C 
HETATM    2  C10 UNL     1      -0.060  12.401  16.631  1.00  0.00     0.007 C 
HETATM    3  C11 UNL     1       1.283  12.969  17.121  1.00  0.00     0.015 C 
HETATM    4  C12 UNL     1       1.691  12.070  18.299  1.00  0.00    -0.009 C 
HETATM    5  C13 UNL     1       2.392  10.810  17.700  1.00  0.00     0.021 C 
HETATM    6  C14 UNL     1       2.629  12.632  19.370  1.00  0.00    -0.032 C 
HETATM    7  C15 UNL     1       2.619  12.107  20.627  1.00  0.00     0.002 C 
HETATM    8  C16 UNL     1       1.727  10.913  20.865  1.00  0.00     0.157 C 
HETATM    9  O3  UNL     1       2.021  10.064  21.705  1.00  0.00    -0.293 OA
HETATM   10  C17 UNL     1       0.474  10.708  20.016  1.00  0.00     0.094 C 
HETATM   11  C18 UNL     1       0.284  11.795  18.953  1.00  0.00    -0.022 C 
HETATM   12  C19 UNL     1      -0.340  13.053  19.635  1.00  0.00     0.017 C 
HETATM   13  C20 UNL     1       3.484  12.711  21.757  1.00  0.00    -0.008 C 
HETATM   14  C21 UNL     1       2.642  13.907  22.287  1.00  0.00     0.021 C 
HETATM   15  C22 UNL     1       3.810  11.849  23.011  1.00  0.00     0.022 C 
HETATM   16  C23 UNL     1       5.100  11.060  22.874  1.00  0.00     0.080 C 
HETATM   17  C24 UNL     1       6.256  12.042  22.827  1.00  0.00     0.135 C 
HETATM   18  O4  UNL     1       7.303  11.802  23.428  1.00  0.00    -0.297 OA
HETATM   19  C25 UNL     1       6.068  13.330  21.995  1.00  0.00     0.018 C 
HETATM   20  C26 UNL     1       5.946  14.519  22.955  1.00  0.00     0.023 C 
HETATM   21  C27 UNL     1       7.354  13.519  21.159  1.00  0.00     0.023 C 
HETATM   22  C28 UNL     1       4.837  13.124  21.055  1.00  0.00     0.016 C 
HETATM   23  C29 UNL     1       4.569  14.241  20.032  1.00  0.00     0.043 C 
HETATM   24  C30 UNL     1       3.548  13.778  18.974  1.00  0.00     0.149 C 
ENDROOT
BRANCH   1  25
HETATM   25  C2  UNL     1      -2.134  11.369  17.816  1.00  0.00    -0.014 C 
HETATM   26  C1  UNL     1      -2.607  10.223  18.724  1.00  0.00     0.010 C 
BRANCH  25  27
HETATM   27  C3  UNL     1      -2.845  11.183  16.443  1.00  0.00     0.007 C 
BRANCH  27  28
HETATM   28  C4  UNL     1      -2.479   9.899  15.679  1.00  0.00     0.035 C 
BRANCH  28  29
HETATM   29  C5  UNL     1      -3.356   9.700  14.427  1.00  0.00     0.151 C 
BRANCH  29  30
HETATM   30  O1  UNL     1      -2.477   9.411  13.330  1.00  0.00    -0.393 OA
HETATM   31  H10 UNL     1      -2.326   8.445  13.358  1.00  0.00     0.210 HD
ENDBRANCH  29  30
BRANCH  29  32
HETATM   32  C6  UNL     1      -4.395   8.546  14.548  1.00  0.00     0.076 C 
HETATM   33  C7  UNL     1      -5.640   8.942  15.350  1.00  0.00     0.048 C 
HETATM   34  C8  UNL     1      -4.824   8.061  13.157  1.00  0.00     0.048 C 
BRANCH  32  35
HETATM   35  O2  UNL     1      -3.760   7.425  15.188  1.00  0.00    -0.388 OA
HETATM   36  H17 UNL     1      -3.727   7.599  16.145  1.00  0.00     0.210 HD
ENDBRANCH  32  35
ENDBRANCH  29  32
ENDBRANCH  28  29
ENDBRANCH  27  28
ENDBRANCH  25  27
ENDBRANCH   1  25
BRANCH  24  37
HETATM   37  O5  UNL     1       4.286  13.374  17.823  1.00  0.00    -0.391 OA
HETATM   38  H48 UNL     1       4.842  12.618  18.079  1.00  0.00     0.210 HD
ENDBRANCH  24  37
TORSDOF 8
ENDMDL
