MODEL 1
REMARK minimizedAffinity -8.9807539
REMARK CNNscore 0.762474239
REMARK CNNaffinity 6.89985657
REMARK  9 active torsions:
REMARK  status: ('A' for Active; 'I' for Inactive)
REMARK    1  A    between atoms: C2_2  and  C30_35 
REMARK    2  A    between atoms: C3_3  and  C4_4 
REMARK    3  A    between atoms: C4_4  and  O1_5 
REMARK    4  A    between atoms: C4_4  and  C5_6 
REMARK    5  A    between atoms: C5_6  and  C6_7 
REMARK    6  A    between atoms: C6_7  and  C8_9 
REMARK    7  A    between atoms: C10_11  and  O2_12 
REMARK    8  A    between atoms: C29_33  and  O5_34 
REMARK    9  A    between atoms: C30_35  and  O7_37 
ROOT
HETATM    1  C8  UNL     1      -0.188  10.857  18.056  1.00  0.00     0.001 C 
HETATM    2  C9  UNL     1      -1.549  11.567  18.332  1.00  0.00     0.038 C 
HETATM    3  C10 UNL     1      -2.530  11.098  17.244  1.00  0.00     0.132 C 
HETATM    4  C11 UNL     1      -1.901   9.795  16.689  1.00  0.00     0.017 C 
HETATM    5  C12 UNL     1      -2.191   8.637  17.702  1.00  0.00     0.023 C 
HETATM    6  C13 UNL     1      -2.347   9.229  15.331  1.00  0.00    -0.029 C 
HETATM    7  C14 UNL     1      -1.501   8.463  14.589  1.00  0.00     0.002 C 
HETATM    8  C15 UNL     1      -0.053   8.313  15.041  1.00  0.00     0.157 C 
HETATM    9  O3  UNL     1       0.732   7.594  14.424  1.00  0.00    -0.293 OA
HETATM   10  C16 UNL     1       0.452   9.032  16.286  1.00  0.00     0.094 C 
HETATM   11  C17 UNL     1      -0.396  10.254  16.626  1.00  0.00    -0.019 C 
HETATM   12  C18 UNL     1      -0.125  11.351  15.549  1.00  0.00     0.017 C 
HETATM   13  C19 UNL     1      -1.927   7.716  13.296  1.00  0.00    -0.008 C 
HETATM   14  C20 UNL     1      -1.363   8.541  12.108  1.00  0.00     0.021 C 
HETATM   15  C21 UNL     1      -1.339   6.269  13.199  1.00  0.00     0.022 C 
HETATM   16  C22 UNL     1      -2.192   5.305  12.388  1.00  0.00     0.080 C 
HETATM   17  C23 UNL     1      -3.556   5.137  13.011  1.00  0.00     0.135 C 
HETATM   18  O4  UNL     1      -4.167   4.072  12.884  1.00  0.00    -0.297 OA
HETATM   19  C24 UNL     1      -4.148   6.342  13.764  1.00  0.00     0.018 C 
HETATM   20  C25 UNL     1      -5.675   6.322  13.520  1.00  0.00     0.023 C 
HETATM   21  C26 UNL     1      -3.917   6.108  15.263  1.00  0.00     0.023 C 
HETATM   22  C27 UNL     1      -3.497   7.631  13.145  1.00  0.00     0.016 C 
HETATM   23  C28 UNL     1      -4.141   8.963  13.536  1.00  0.00     0.043 C 
HETATM   24  C29 UNL     1      -3.796   9.435  14.941  1.00  0.00     0.149 C 
ENDROOT
BRANCH   1  25
HETATM   25  C6  UNL     1       1.023  11.795  18.354  1.00  0.00    -0.011 C 
HETATM   26  C7  UNL     1       1.186  12.889  17.295  1.00  0.00     0.010 C 
BRANCH  25  27
HETATM   27  C5  UNL     1       2.329  10.956  18.444  1.00  0.00     0.040 C 
BRANCH  27  28
HETATM   28  C4  UNL     1       3.079  11.007  19.787  1.00  0.00     0.142 C 
BRANCH  28  29
HETATM   29  C3  UNL     1       2.650   9.923  20.732  1.00  0.00     0.018 C 
HETATM   30  C2  UNL     1       2.933   9.827  22.047  1.00  0.00     0.010 C 
HETATM   31  C1  UNL     1       3.777  10.772  22.848  1.00  0.00     0.055 C 
BRANCH  30  32
HETATM   32  C30 UNL     1       2.347   8.660  22.751  1.00  0.00     0.171 C 
HETATM   33  O6  UNL     1       1.806   7.699  22.231  1.00  0.00    -0.646 OA
BRANCH  32  34
HETATM   34  O7  UNL     1       2.476   8.751  24.087  1.00  0.00    -0.773 OA
HETATM   35  H44 UNL     1       2.059   7.927  24.415  1.00  0.00     0.167 HD
ENDBRANCH  32  34
ENDBRANCH  30  32
ENDBRANCH  28  29
BRANCH  28  36
HETATM   36  O1  UNL     1       4.469  10.824  19.518  1.00  0.00    -0.392 OA
HETATM   37  H6  UNL     1       4.635   9.871  19.404  1.00  0.00     0.210 HD
ENDBRANCH  28  36
ENDBRANCH  27  28
ENDBRANCH  25  27
ENDBRANCH   1  25
BRANCH   3  38
HETATM   38  O2  UNL     1      -3.842  10.914  17.763  1.00  0.00    -0.394 OA
HETATM   39  H17 UNL     1      -4.086  11.737  18.228  1.00  0.00     0.210 HD
ENDBRANCH   3  38
BRANCH  24  40
HETATM   40  O5  UNL     1      -4.125  10.818  14.963  1.00  0.00    -0.391 OA
HETATM   41  H43 UNL     1      -4.569  10.972  15.820  1.00  0.00     0.210 HD
ENDBRANCH  24  40
TORSDOF 9
ENDMDL
