MODEL 1
REMARK minimizedAffinity -7.42177486
REMARK CNNscore 0.816873789
REMARK CNNaffinity 7.30668497
REMARK  6 active torsions:
REMARK  status: ('A' for Active; 'I' for Inactive)
REMARK    1  A    between atoms: C2_2  and  C30_31 
REMARK    2  A    between atoms: C3_3  and  C4_4 
REMARK    3  A    between atoms: C4_4  and  C5_5 
REMARK    4  A    between atoms: C5_5  and  C6_6 
REMARK    5  A    between atoms: C6_6  and  C8_8 
REMARK    6  A    between atoms: C30_31  and  O3_33 
ROOT
HETATM    1  C8  UNL     1       4.732  55.485  -8.578  1.00  0.00    -0.002 C 
HETATM    2  C9  UNL     1       3.992  56.770  -8.122  1.00  0.00     0.007 C 
HETATM    3  C10 UNL     1       2.508  56.592  -8.522  1.00  0.00     0.015 C 
HETATM    4  C11 UNL     1       2.486  55.357  -9.452  1.00  0.00    -0.013 C 
HETATM    5  C12 UNL     1       2.846  55.889 -10.879  1.00  0.00     0.021 C 
HETATM    6  C13 UNL     1       1.184  54.584  -9.619  1.00  0.00    -0.070 C 
HETATM    7  C14 UNL     1      -0.021  55.184  -9.573  1.00  0.00    -0.022 C 
HETATM    8  C15 UNL     1      -1.325  54.500  -9.870  1.00  0.00     0.034 C 
HETATM    9  C16 UNL     1      -1.215  52.966 -10.016  1.00  0.00     0.013 C 
HETATM   10  C17 UNL     1      -2.535  52.228 -10.460  1.00  0.00     0.018 C 
HETATM   11  C18 UNL     1      -3.048  51.350  -9.295  1.00  0.00     0.023 C 
HETATM   12  C19 UNL     1      -3.680  53.190 -10.841  1.00  0.00     0.023 C 
HETATM   13  C20 UNL     1      -2.307  51.270 -11.639  1.00  0.00     0.135 C 
HETATM   14  O1  UNL     1      -3.162  51.100 -12.514  1.00  0.00    -0.297 OA
HETATM   15  C21 UNL     1      -1.047  50.437 -11.677  1.00  0.00     0.080 C 
HETATM   16  C22 UNL     1       0.114  51.028 -10.893  1.00  0.00     0.017 C 
HETATM   17  C23 UNL     1       0.086  52.570 -10.803  1.00  0.00    -0.031 C 
HETATM   18  C24 UNL     1       0.127  53.182 -12.227  1.00  0.00     0.016 C 
HETATM   19  C25 UNL     1       1.307  53.088  -9.942  1.00  0.00     0.024 C 
HETATM   20  C26 UNL     1       2.706  52.687 -10.477  1.00  0.00     0.010 C 
HETATM   21  C27 UNL     1       3.920  53.276  -9.717  1.00  0.00     0.011 C 
HETATM   22  C28 UNL     1       3.577  54.453  -8.782  1.00  0.00    -0.029 C 
HETATM   23  C29 UNL     1       3.150  53.871  -7.403  1.00  0.00     0.016 C 
ENDROOT
BRANCH   1  24
HETATM   24  C6  UNL     1       5.985  55.069  -7.749  1.00  0.00    -0.014 C 
HETATM   25  C7  UNL     1       7.071  54.592  -8.734  1.00  0.00     0.010 C 
BRANCH  24  26
HETATM   26  C5  UNL     1       6.572  56.167  -6.826  1.00  0.00     0.008 C 
BRANCH  26  27
HETATM   27  C4  UNL     1       8.015  55.909  -6.360  1.00  0.00     0.028 C 
BRANCH  27  28
HETATM   28  C3  UNL     1       8.234  56.014  -4.876  1.00  0.00    -0.013 C 
HETATM   29  C2  UNL     1       9.178  56.719  -4.218  1.00  0.00     0.008 C 
HETATM   30  C1  UNL     1       9.226  56.737  -2.716  1.00  0.00     0.055 C 
BRANCH  29  31
HETATM   31  C30 UNL     1      10.234  57.480  -4.934  1.00  0.00     0.171 C 
HETATM   32  O2  UNL     1      10.203  58.647  -5.283  1.00  0.00    -0.646 OA
BRANCH  31  33
HETATM   33  O3  UNL     1      11.309  56.716  -5.201  1.00  0.00    -0.773 OA
HETATM   34  H46 UNL     1      11.911  57.334  -5.667  1.00  0.00     0.167 HD
ENDBRANCH  31  33
ENDBRANCH  29  31
ENDBRANCH  27  28
ENDBRANCH  26  27
ENDBRANCH  24  26
ENDBRANCH   1  24
TORSDOF 6
ENDMDL
