MODEL 1
REMARK minimizedAffinity -8.56176567
REMARK CNNscore 0.483267784
REMARK CNNaffinity 7.19928885
REMARK  11 active torsions:
REMARK  status: ('A' for Active; 'I' for Inactive)
REMARK    1  A    between atoms: C5_5  and  C7_7 
REMARK    2  A    between atoms: C7_7  and  C9_9 
REMARK    3  A    between atoms: C18_18  and  C20_20 
REMARK    4  A    between atoms: C20_20  and  O2_22 
REMARK    5  A    between atoms: C21_23  and  O3_24 
REMARK    6  A    between atoms: O3_24  and  C22_25 
REMARK    7  A    between atoms: C23_27  and  C24_28 
REMARK    8  A    between atoms: C24_28  and  O5_29 
REMARK    9  A    between atoms: C25_30  and  O6_31 
REMARK   10  A    between atoms: C26_32  and  O7_33 
REMARK   11  A    between atoms: C27_34  and  O8_35 
ROOT
HETATM    1  C9  UNL     1      -5.479   5.372  13.915  1.00  0.00     0.001 C 
HETATM    2  C10 UNL     1      -4.835   6.082  15.142  1.00  0.00     0.007 C 
HETATM    3  C11 UNL     1      -5.920   6.900  15.858  1.00  0.00     0.011 C 
HETATM    4  C12 UNL     1      -7.244   6.450  15.228  1.00  0.00    -0.032 C 
HETATM    5  C13 UNL     1      -7.699   5.159  15.978  1.00  0.00     0.016 C 
HETATM    6  C14 UNL     1      -8.359   7.528  15.288  1.00  0.00     0.004 C 
HETATM    7  C15 UNL     1      -8.884   7.796  16.705  1.00  0.00     0.007 C 
HETATM    8  C16 UNL     1      -9.998   8.841  16.697  1.00  0.00     0.007 C 
HETATM    9  C17 UNL     1     -11.237   8.251  16.003  1.00  0.00     0.016 C 
HETATM   10  C18 UNL     1     -12.515   9.145  16.036  1.00  0.00     0.072 C 
HETATM   11  C19 UNL     1     -12.343  10.427  15.192  1.00  0.00     0.030 C 
HETATM   12  C21 UNL     1     -13.749   8.295  15.564  1.00  0.00     0.143 C 
HETATM   13  C28 UNL     1     -13.369   7.028  14.779  1.00  0.00     0.034 C 
HETATM   14  C29 UNL     1     -12.184   7.240  13.847  1.00  0.00     0.013 C 
HETATM   15  C30 UNL     1     -10.943   7.776  14.569  1.00  0.00    -0.027 A 
HETATM   16  C31 UNL     1     -10.026   8.537  13.640  1.00  0.00     0.021 A 
HETATM   17  C32 UNL     1      -9.498   7.265  14.268  1.00  0.00    -0.027 A 
HETATM   18  C33 UNL     1      -9.377   6.025  13.383  1.00  0.00     0.011 C 
HETATM   19  C34 UNL     1      -7.971   5.515  13.020  1.00  0.00     0.011 C 
HETATM   20  C35 UNL     1      -6.806   6.213  13.735  1.00  0.00    -0.032 C 
HETATM   21  C36 UNL     1      -6.482   7.534  12.972  1.00  0.00     0.016 C 
ENDROOT
BRANCH  12  22
HETATM   22  O3  UNL     1     -14.628   9.086  14.746  1.00  0.00    -0.352 OA
BRANCH  22  23
HETATM   23  C22 UNL     1     -15.763   8.351  14.275  1.00  0.00     0.292 C 
HETATM   24  O4  UNL     1     -16.232   8.962  13.070  1.00  0.00    -0.348 OA
HETATM   25  C23 UNL     1     -17.362   8.286  12.510  1.00  0.00     0.179 C 
HETATM   26  C25 UNL     1     -18.552   8.391  13.476  1.00  0.00     0.180 C 
HETATM   27  C26 UNL     1     -18.161   7.784  14.825  1.00  0.00     0.183 C 
HETATM   28  C27 UNL     1     -16.858   8.381  15.365  1.00  0.00     0.204 C 
BRANCH  25  29
HETATM   29  C24 UNL     1     -17.692   8.912  11.148  1.00  0.00     0.198 C 
BRANCH  29  30
HETATM   30  O5  UNL     1     -16.523   9.160  10.377  1.00  0.00    -0.398 OA
HETATM   31  H37 UNL     1     -15.948   8.368  10.463  1.00  0.00     0.209 HD
ENDBRANCH  29  30
ENDBRANCH  25  29
BRANCH  26  32
HETATM   32  O6  UNL     1     -19.705   7.718  12.956  1.00  0.00    -0.390 OA
HETATM   33  H39 UNL     1     -20.283   7.528  13.725  1.00  0.00     0.210 HD
ENDBRANCH  26  32
BRANCH  27  34
HETATM   34  O7  UNL     1     -19.231   7.973  15.771  1.00  0.00    -0.390 OA
HETATM   35  H41 UNL     1     -19.345   8.931  15.921  1.00  0.00     0.210 HD
ENDBRANCH  27  34
BRANCH  28  36
HETATM   36  O8  UNL     1     -16.463   7.632  16.525  1.00  0.00    -0.388 OA
HETATM   37  H43 UNL     1     -17.262   7.526  17.077  1.00  0.00     0.210 HD
ENDBRANCH  28  36
ENDBRANCH  22  23
ENDBRANCH  12  22
BRANCH  10  38
HETATM   38  C20 UNL     1     -12.790   9.506  17.497  1.00  0.00     0.151 C 
HETATM   39  O1  UNL     1     -12.567  10.586  18.024  1.00  0.00    -0.649 OA
BRANCH  38  40
HETATM   40  O2  UNL     1     -13.377   8.533  18.218  1.00  0.00    -0.776 OA
HETATM   41  H31 UNL     1     -13.496   8.917  19.113  1.00  0.00     0.167 HD
ENDBRANCH  38  40
ENDBRANCH  10  38
BRANCH   1  42
HETATM   42  C7  UNL     1      -4.503   5.169  12.688  1.00  0.00     0.021 C 
HETATM   43  C8  UNL     1      -4.561   3.686  12.243  1.00  0.00     0.013 C 
BRANCH  42  44
HETATM   44  C5  UNL     1      -2.976   5.564  12.932  1.00  0.00     0.074 C 
HETATM   45  C4  UNL     1      -2.788   7.103  12.858  1.00  0.00     0.066 C 
HETATM   46  C3  UNL     1      -1.361   7.475  12.603  1.00  0.00    -0.011 C 
HETATM   47  C2  UNL     1      -0.492   6.620  12.042  1.00  0.00     0.010 C 
HETATM   48  C1  UNL     1       0.943   6.964  11.782  1.00  0.00     0.054 C 
HETATM   49  C37 UNL     1      -0.934   5.276  11.588  1.00  0.00     0.289 C 
HETATM   50  O9  UNL     1      -2.204   4.908  11.888  1.00  0.00    -0.306 OA
HETATM   51  O10 UNL     1      -0.191   4.545  10.944  1.00  0.00    -0.260 OA
HETATM   52  C6  UNL     1      -2.406   5.087  14.280  1.00  0.00     0.047 C 
ENDBRANCH  42  44
ENDBRANCH   1  42
TORSDOF 11
ENDMDL
