MODEL 1
REMARK minimizedAffinity -7.1627717
REMARK CNNscore 0.774654984
REMARK CNNaffinity 7.17280817
REMARK  8 active torsions:
REMARK  status: ('A' for Active; 'I' for Inactive)
REMARK    1  A    between atoms: C4_4  and  C5_5 
REMARK    2  A    between atoms: C5_5  and  C6_7 
REMARK    3  A    between atoms: C6_7  and  C7_8 
REMARK    4  A    between atoms: C7_8  and  C9_10 
REMARK    5  A    between atoms: C18_19  and  C20_21 
REMARK    6  A    between atoms: C20_21  and  O2_22 
REMARK    7  A    between atoms: C21_23  and  O3_24 
REMARK    8  A    between atoms: O3_24  and  S1_25 
ROOT
HETATM    1  C9  UNL     1       3.428  55.443  -8.238  1.00  0.00    -0.001 C 
HETATM    2  C10 UNL     1       2.502  56.481  -7.562  1.00  0.00     0.006 C 
HETATM    3  C11 UNL     1       1.051  55.969  -7.735  1.00  0.00     0.012 C 
HETATM    4  C12 UNL     1       1.171  54.556  -8.349  1.00  0.00    -0.016 C 
HETATM    5  C13 UNL     1       1.313  53.566  -7.152  1.00  0.00     0.018 C 
HETATM    6  C14 UNL     1      -0.013  54.127  -9.260  1.00  0.00     0.089 A 
HETATM    7  C15 UNL     1      -1.309  53.791  -8.505  1.00  0.00     0.121 A 
HETATM    8  C16 UNL     1      -2.434  53.474  -9.494  1.00  0.00     0.026 C 
HETATM    9  C17 UNL     1      -2.155  52.151 -10.230  1.00  0.00     0.009 C 
HETATM   10  C18 UNL     1      -3.248  51.749 -11.302  1.00  0.00     0.009 C 
HETATM   11  C19 UNL     1      -3.743  52.967 -12.124  1.00  0.00     0.020 C 
HETATM   12  C21 UNL     1      -2.691  50.634 -12.261  1.00  0.00     0.155 C 
HETATM   13  C22 UNL     1      -1.583  49.802 -11.610  1.00  0.00     0.035 C 
HETATM   14  C23 UNL     1      -0.368  50.643 -11.230  1.00  0.00     0.013 C 
HETATM   15  C24 UNL     1      -0.734  52.063 -10.799  1.00  0.00    -0.025 A 
HETATM   16  C25 UNL     1      -0.179  53.172 -11.652  1.00  0.00     0.023 A 
HETATM   17  C26 UNL     1       0.377  53.001 -10.248  1.00  0.00    -0.011 A 
HETATM   18  C27 UNL     1       1.783  52.403 -10.122  1.00  0.00     0.013 C 
HETATM   19  C28 UNL     1       2.926  53.337  -9.690  1.00  0.00     0.011 C 
HETATM   20  C29 UNL     1       2.462  54.720  -9.228  1.00  0.00    -0.031 C 
HETATM   21  C30 UNL     1       2.261  55.597 -10.498  1.00  0.00     0.016 C 
HETATM   22 NA1  UNL     1       0.869  54.577  -9.798  1.00  0.00    -0.415 Na
ATOM     23  HA1 UNL     1       1.688  54.932 -10.291  1.00  0.00     0.153 HD
ENDROOT
BRANCH   1  24
HETATM   24  C7  UNL     1       4.801  55.929  -8.786  1.00  0.00    -0.007 C 
HETATM   25  C8  UNL     1       5.106  55.263 -10.137  1.00  0.00     0.011 C 
BRANCH  24  26
HETATM   26  C6  UNL     1       6.018  55.883  -7.841  1.00  0.00     0.087 C 
BRANCH  26  27
HETATM   27  C5  UNL     1       5.796  56.065  -6.342  1.00  0.00     0.149 C 
HETATM   28  O1  UNL     1       5.454  55.157  -5.593  1.00  0.00    -0.293 OA
BRANCH  27  29
HETATM   29  C4  UNL     1       6.093  57.446  -5.825  1.00  0.00     0.052 C 
HETATM   30  C2  UNL     1       7.278  57.888  -5.360  1.00  0.00    -0.084 C 
HETATM   31  C1  UNL     1       8.512  57.036  -5.250  1.00  0.00     0.043 C 
HETATM   32  C3  UNL     1       7.435  59.310  -4.895  1.00  0.00     0.043 C 
ENDBRANCH  27  29
ENDBRANCH  26  27
ENDBRANCH  24  26
ENDBRANCH   1  24
BRANCH  10  33
HETATM   33  C20 UNL     1      -4.508  51.197 -10.570  1.00  0.00     0.176 C 
BRANCH  33  34
HETATM   34  O2  UNL     1      -4.202  50.453  -9.396  1.00  0.00    -0.400 OA
HETATM   35  H33 UNL     1      -3.996  49.545  -9.684  1.00  0.00     0.209 HD
ENDBRANCH  33  34
ENDBRANCH  10  33
BRANCH  12  36
HETATM   36  O3  UNL     1      -2.153  51.221 -13.442  1.00  0.00    -0.251 OA
BRANCH  36  37
HETATM   37  S1  UNL     1      -2.476  50.549 -14.892  1.00  0.00     0.252 S 
HETATM   38  O4  UNL     1      -3.018  49.239 -14.540  1.00  0.00    -0.572 OA
HETATM   39  O5  UNL     1      -3.439  51.470 -15.493  1.00  0.00    -0.572 OA
HETATM   40  O6  UNL     1      -1.180  50.499 -15.571  1.00  0.00    -0.572 OA
ENDBRANCH  36  37
ENDBRANCH  12  36
TORSDOF 8
ENDMDL
