MODEL 1
REMARK minimizedAffinity -6.61704969
REMARK CNNscore 0.546570897
REMARK CNNaffinity 5.87894392
REMARK  7 active torsions:
REMARK  status: ('A' for Active; 'I' for Inactive)
REMARK    1  A    between atoms: C2_2  and  C4_4 
REMARK    2  A    between atoms: C7_7  and  O1_9 
REMARK    3  A    between atoms: C9_10  and  C10_11 
REMARK    4  A    between atoms: C11_12  and  C12_13 
REMARK    5  A    between atoms: C14_15  and  C15_16 
REMARK    6  A    between atoms: C24_26  and  C26_28 
REMARK    7  A    between atoms: C29_32  and  O4_34 
ROOT
HETATM    1  C15 UNL     1       3.661  11.434  16.642  1.00  0.00     0.149 C 
HETATM    2  C16 UNL     1       2.718  12.193  17.575  1.00  0.00     0.054 C 
HETATM    3  C17 UNL     1       3.278  11.989  19.016  1.00  0.00     0.050 C 
HETATM    4  C18 UNL     1       4.714  11.499  18.670  1.00  0.00     0.272 C 
HETATM    5  O2  UNL     1       5.644  12.530  18.344  1.00  0.00    -0.360 OA
HETATM    6  C19 UNL     1       6.283  13.108  19.464  1.00  0.00     0.171 C 
HETATM    7  C20 UNL     1       5.557  14.367  19.903  1.00  0.00     0.027 C 
HETATM    8  C21 UNL     1       4.111  14.468  19.429  1.00  0.00     0.012 C 
HETATM    9  C22 UNL     1       3.165  13.321  19.856  1.00  0.00     0.032 C 
HETATM   10  C23 UNL     1       3.168  13.118  21.389  1.00  0.00    -0.066 C 
HETATM   11  C24 UNL     1       2.646  14.000  22.280  1.00  0.00    -0.021 C 
HETATM   12  C25 UNL     1       2.688  13.845  23.775  1.00  0.00     0.052 C 
HETATM   13  C27 UNL     1       3.762  11.804  21.840  1.00  0.00     0.038 C 
HETATM   14  C28 UNL     1       3.109  10.590  21.180  1.00  0.00     0.042 C 
HETATM   15  C29 UNL     1       2.479  10.861  19.793  1.00  0.00     0.067 C 
HETATM   16  C30 UNL     1       0.975  11.176  19.985  1.00  0.00     0.047 C 
HETATM   17  O5  UNL     1       4.578  10.717  17.473  1.00  0.00    -0.351 OA
ENDROOT
BRANCH   1  18
HETATM   18  C14 UNL     1       3.221  10.542  15.514  1.00  0.00     0.011 C 
HETATM   19  C12 UNL     1       2.123   9.806  15.237  1.00  0.00    -0.064 C 
HETATM   20  C13 UNL     1       0.957   9.593  16.158  1.00  0.00     0.048 C 
BRANCH  19  21
HETATM   21  C11 UNL     1       2.075   9.118  13.938  1.00  0.00     0.003 C 
HETATM   22  C10 UNL     1       2.987   8.266  13.444  1.00  0.00    -0.018 C 
BRANCH  22  23
HETATM   23  C9  UNL     1       2.972   7.551  12.104  1.00  0.00     0.050 C 
HETATM   24  C4  UNL     1       2.079   8.108  10.948  1.00  0.00     0.024 C 
HETATM   25  C5  UNL     1       2.888   7.860   9.648  1.00  0.00     0.013 C 
HETATM   26  C6  UNL     1       4.062   6.980  10.049  1.00  0.00     0.039 C 
HETATM   27  C7  UNL     1       4.386   7.416  11.479  1.00  0.00     0.062 C 
HETATM   28  C8  UNL     1       5.220   8.703  11.509  1.00  0.00     0.046 C 
BRANCH  24  29
HETATM   29  C2  UNL     1       0.674   7.509  10.982  1.00  0.00    -0.088 C 
HETATM   30  C1  UNL     1       0.406   6.191  10.985  1.00  0.00     0.014 C 
HETATM   31  C3  UNL     1      -0.459   8.501  11.032  1.00  0.00     0.043 C 
ENDBRANCH  24  29
BRANCH  27  32
HETATM   32  O1  UNL     1       5.123   6.381  12.132  1.00  0.00    -0.390 OA
HETATM   33  H14 UNL     1       5.982   6.302  11.685  1.00  0.00     0.210 HD
ENDBRANCH  27  32
ENDBRANCH  22  23
ENDBRANCH  19  21
ENDBRANCH   1  18
BRANCH  15  34
HETATM   34  O4  UNL     1       2.533   9.622  19.080  1.00  0.00    -0.389 OA
HETATM   35  H44 UNL     1       1.988   8.962  19.543  1.00  0.00     0.210 HD
ENDBRANCH  15  34
BRANCH  11  36
HETATM   36  C26 UNL     1       1.970  15.265  21.852  1.00  0.00     0.265 C 
HETATM   37  O3  UNL     1       1.812  16.235  22.583  1.00  0.00    -0.302 OA
ENDBRANCH  11  36
TORSDOF 7
ENDMDL
