MODEL 1
REMARK minimizedAffinity -9.38653946
REMARK  6 active torsions:
REMARK  status: ('A' for Active; 'I' for Inactive)
REMARK    1  A    between atoms: C4_4  and  C5_5 
REMARK    2  A    between atoms: C5_5  and  C6_6 
REMARK    3  A    between atoms: C6_6  and  C7_7 
REMARK    4  A    between atoms: C7_7  and  C9_9 
REMARK    5  A    between atoms: C17_17  and  O1_18 
REMARK    6  A    between atoms: C21_22  and  O2_23 
ROOT
HETATM    1  C9  UNL     1      -6.455   7.182  14.183  1.00  0.00    -0.002 C 
HETATM    2  C10 UNL     1      -6.440   8.554  14.910  1.00  0.00     0.006 C 
HETATM    3  C11 UNL     1      -4.953   8.917  15.146  1.00  0.00     0.011 C 
HETATM    4  C12 UNL     1      -4.155   7.929  14.267  1.00  0.00    -0.032 C 
HETATM    5  C13 UNL     1      -4.194   8.528  12.818  1.00  0.00     0.016 C 
HETATM    6  C14 UNL     1      -2.684   7.646  14.727  1.00  0.00     0.003 C 
HETATM    7  C15 UNL     1      -1.848   8.941  14.795  1.00  0.00     0.009 C 
HETATM    8  C16 UNL     1      -0.416   8.823  14.305  1.00  0.00     0.039 C 
HETATM    9  C17 UNL     1      -0.293   8.195  12.899  1.00  0.00     0.071 C 
HETATM   10  C18 UNL     1      -1.212   6.921  12.695  1.00  0.00     0.029 C 
HETATM   11  C19 UNL     1      -0.516   5.804  11.885  1.00  0.00     0.011 C 
HETATM   12  C20 UNL     1       0.261   6.330  10.688  1.00  0.00     0.033 C 
HETATM   13  C21 UNL     1       1.247   7.456  11.001  1.00  0.00     0.129 C 
HETATM   14  C22 UNL     1       1.214   7.999  12.458  1.00  0.00     0.010 C 
HETATM   15  C23 UNL     1       2.021   7.094  13.426  1.00  0.00     0.020 C 
HETATM   16  C24 UNL     1       1.991   9.349  12.443  1.00  0.00     0.020 C 
HETATM   17  C25 UNL     1      -1.995   6.422  13.981  1.00  0.00    -0.033 C 
HETATM   18  C26 UNL     1      -0.991   5.734  14.959  1.00  0.00     0.016 C 
HETATM   19  C27 UNL     1      -3.032   5.261  13.647  1.00  0.00     0.011 C 
HETATM   20  C28 UNL     1      -4.514   5.601  13.419  1.00  0.00     0.011 C 
HETATM   21  C29 UNL     1      -5.019   6.629  14.435  1.00  0.00    -0.032 C 
HETATM   22  C30 UNL     1      -4.945   5.985  15.851  1.00  0.00     0.016 C 
ENDROOT
BRANCH   1  23
HETATM   23  C7  UNL     1      -7.686   6.265  14.455  1.00  0.00    -0.014 C 
HETATM   24  C8  UNL     1      -7.343   5.347  15.645  1.00  0.00     0.010 C 
BRANCH  23  25
HETATM   25  C6  UNL     1      -8.157   5.398  13.260  1.00  0.00     0.008 C 
BRANCH  25  26
HETATM   26  C5  UNL     1      -7.024   4.881  12.356  1.00  0.00     0.028 C 
BRANCH  26  27
HETATM   27  C4  UNL     1      -6.963   3.389  12.209  1.00  0.00    -0.025 C 
HETATM   28  C2  UNL     1      -6.048   2.671  11.528  1.00  0.00    -0.091 C 
HETATM   29  C1  UNL     1      -6.143   1.169  11.463  1.00  0.00     0.042 C 
HETATM   30  C3  UNL     1      -4.866   3.251  10.801  1.00  0.00     0.042 C 
ENDBRANCH  26  27
ENDBRANCH  25  26
ENDBRANCH  23  25
ENDBRANCH   1  23
BRANCH   9  31
HETATM   31  O1  UNL     1      -0.860   9.168  11.979  1.00  0.00    -0.389 OA
HETATM   32  H29 UNL     1      -0.564  10.056  12.240  1.00  0.00     0.210 HD
ENDBRANCH   9  31
BRANCH  13  33
HETATM   33  O2  UNL     1       2.568   7.025  10.656  1.00  0.00    -0.395 OA
HETATM   34  H36 UNL     1       2.567   6.827   9.703  1.00  0.00     0.210 HD
ENDBRANCH  13  33
TORSDOF 6
ENDMDL
