MODEL 1
REMARK minimizedAffinity -9.24869251
REMARK  8 active torsions:
REMARK  status: ('A' for Active; 'I' for Inactive)
REMARK    1  A    between atoms: C2_2  and  C3_3 
REMARK    2  A    between atoms: C2_2  and  C29_30 
REMARK    3  A    between atoms: C3_3  and  C4_4 
REMARK    4  A    between atoms: C4_4  and  C5_5 
REMARK    5  A    between atoms: C5_5  and  C7_7 
REMARK    6  A    between atoms: C29_30  and  C31_32 
REMARK    7  A    between atoms: C31_32  and  O2_33 
REMARK    8  A    between atoms: O2_33  and  C32_34 
ROOT
HETATM    1  C7  UNL     1      -3.942  50.187 -24.210  1.00  0.00    -0.002 C 
HETATM    2  C8  UNL     1      -4.717  51.543 -24.158  1.00  0.00     0.006 C 
HETATM    3  C9  UNL     1      -4.246  52.304 -22.897  1.00  0.00     0.011 C 
HETATM    4  C10 UNL     1      -3.006  51.531 -22.438  1.00  0.00    -0.032 C 
HETATM    5  C11 UNL     1      -1.826  52.045 -23.351  1.00  0.00     0.016 C 
HETATM    6  C12 UNL     1      -2.501  51.752 -20.989  1.00  0.00     0.004 C 
HETATM    7  C13 UNL     1      -3.532  51.681 -19.812  1.00  0.00     0.007 C 
HETATM    8  C14 UNL     1      -3.095  50.790 -18.602  1.00  0.00     0.007 C 
HETATM    9  C15 UNL     1      -1.648  51.095 -18.191  1.00  0.00     0.010 C 
HETATM   10  C16 UNL     1      -0.877  50.320 -17.122  1.00  0.00     0.018 C 
HETATM   11  C17 UNL     1      -0.670  48.850 -17.503  1.00  0.00     0.023 C 
HETATM   12  C18 UNL     1      -1.587  50.398 -15.763  1.00  0.00     0.023 C 
HETATM   13  C19 UNL     1       0.502  51.027 -16.989  1.00  0.00     0.135 C 
HETATM   14  O1  UNL     1       1.419  50.506 -16.347  1.00  0.00    -0.297 OA
HETATM   15  C20 UNL     1       0.677  52.446 -17.572  1.00  0.00     0.080 C 
HETATM   16  C21 UNL     1       0.011  52.685 -18.952  1.00  0.00     0.018 C 
HETATM   17  C22 UNL     1      -0.721  51.415 -19.347  1.00  0.00    -0.026 A 
HETATM   18  C23 UNL     1       0.090  50.841 -20.465  1.00  0.00     0.021 A 
HETATM   19  C24 UNL     1      -1.371  50.782 -20.674  1.00  0.00    -0.027 A 
HETATM   20  C25 UNL     1      -1.696  49.309 -21.027  1.00  0.00     0.011 C 
HETATM   21  C26 UNL     1      -2.220  49.139 -22.474  1.00  0.00     0.011 C 
HETATM   22  C27 UNL     1      -3.439  50.039 -22.737  1.00  0.00    -0.032 C 
HETATM   23  C28 UNL     1      -4.621  49.485 -21.890  1.00  0.00     0.016 C 
ENDROOT
BRANCH   1  24
HETATM   24  C5  UNL     1      -4.780  49.061 -24.882  1.00  0.00    -0.014 C 
HETATM   25  C6  UNL     1      -5.241  47.999 -23.878  1.00  0.00     0.010 C 
BRANCH  24  26
HETATM   26  C4  UNL     1      -4.037  48.379 -26.064  1.00  0.00     0.009 C 
BRANCH  26  27
HETATM   27  C3  UNL     1      -2.586  48.836 -26.269  1.00  0.00     0.034 C 
BRANCH  27  28
HETATM   28  C2  UNL     1      -2.481  50.121 -27.079  1.00  0.00    -0.083 C 
HETATM   29  C1  UNL     1      -3.309  50.306 -28.124  1.00  0.00     0.015 C 
BRANCH  28  30
HETATM   30  C29 UNL     1      -1.404  51.126 -26.644  1.00  0.00     0.034 C 
HETATM   31  C30 UNL     1      -0.117  50.387 -26.257  1.00  0.00     0.017 C 
BRANCH  30  32
HETATM   32  C31 UNL     1      -1.052  52.228 -27.667  1.00  0.00     0.187 C 
BRANCH  32  33
HETATM   33  O2  UNL     1       0.171  52.878 -27.281  1.00  0.00    -0.321 OA
BRANCH  33  34
HETATM   34  C32 UNL     1       0.005  54.131 -26.778  1.00  0.00     0.254 C 
HETATM   35  C33 UNL     1       0.314  54.142 -25.312  1.00  0.00     0.126 C 
HETATM   36  O3  UNL     1      -0.347  55.113 -27.418  1.00  0.00    -0.266 OA
ENDBRANCH  33  34
ENDBRANCH  32  33
ENDBRANCH  30  32
ENDBRANCH  28  30
ENDBRANCH  27  28
ENDBRANCH  26  27
ENDBRANCH  24  26
ENDBRANCH   1  24
TORSDOF 8
ENDMDL
