MODEL 1
REMARK minimizedAffinity -7.4666934
REMARK CNNscore 0.673579276
REMARK CNNaffinity 6.84468508
REMARK  11 active torsions:
REMARK  status: ('A' for Active; 'I' for Inactive)
REMARK    1  A    between atoms: C2_2  and  C3_3 
REMARK    2  A    between atoms: C3_3  and  C4_4 
REMARK    3  A    between atoms: C4_4  and  C6_6 
REMARK    4  A    between atoms: C9_9  and  O1_10 
REMARK    5  A    between atoms: C15_16  and  O2_17 
REMARK    6  A    between atoms: O2_17  and  C16_18 
REMARK    7  A    between atoms: C17_20  and  C18_21 
REMARK    8  A    between atoms: C18_21  and  O4_22 
REMARK    9  A    between atoms: C19_23  and  O5_24 
REMARK   10  A    between atoms: C20_25  and  O6_26 
REMARK   11  A    between atoms: C21_27  and  O7_28 
ROOT
HETATM    1  C6  UNL     1      -7.182   4.842  14.547  1.00  0.00     0.000 C 
HETATM    2  C7  UNL     1      -8.180   5.533  15.520  1.00  0.00     0.009 C 
HETATM    3  C8  UNL     1      -7.478   6.759  16.131  1.00  0.00     0.039 C 
HETATM    4  C9  UNL     1      -6.026   6.596  15.702  1.00  0.00     0.070 C 
HETATM    5  C10 UNL     1      -5.076   7.798  15.862  1.00  0.00     0.030 C 
HETATM    6  C11 UNL     1      -5.595   9.178  15.445  1.00  0.00     0.009 C 
HETATM    7  C12 UNL     1      -4.575  10.311  15.657  1.00  0.00     0.006 C 
HETATM    8  C13 UNL     1      -3.180   9.869  16.149  1.00  0.00    -0.003 C 
HETATM    9  C14 UNL     1      -2.164  11.014  16.068  1.00  0.00     0.037 C 
HETATM   10  C15 UNL     1      -1.860  11.447  14.626  1.00  0.00     0.125 C 
HETATM   11  C22 UNL     1      -1.796  10.258  13.654  1.00  0.00     0.033 C 
HETATM   12  C23 UNL     1      -1.578   8.928  14.369  1.00  0.00     0.013 C 
HETATM   13  C24 UNL     1      -2.677   8.643  15.382  1.00  0.00    -0.028 A 
HETATM   14  C25 UNL     1      -2.532   7.335  16.132  1.00  0.00     0.021 A 
HETATM   15  C26 UNL     1      -3.711   7.516  15.204  1.00  0.00    -0.025 A 
HETATM   16  C27 UNL     1      -3.724   6.721  13.904  1.00  0.00     0.012 C 
HETATM   17  C28 UNL     1      -4.723   5.551  13.865  1.00  0.00     0.013 C 
HETATM   18  C29 UNL     1      -6.144   5.991  14.269  1.00  0.00    -0.009 C 
HETATM   19  C30 UNL     1      -6.711   6.949  13.194  1.00  0.00     0.019 C 
ENDROOT
BRANCH  10  20
HETATM   20  O2  UNL     1      -0.603  12.137  14.663  1.00  0.00    -0.353 OA
BRANCH  20  21
HETATM   21  C16 UNL     1      -0.736  13.572  14.641  1.00  0.00     0.292 C 
HETATM   22  O3  UNL     1      -1.174  13.991  13.351  1.00  0.00    -0.348 OA
HETATM   23  C17 UNL     1      -0.762  15.300  12.933  1.00  0.00     0.179 C 
HETATM   24  C19 UNL     1       0.778  15.447  12.917  1.00  0.00     0.180 C 
HETATM   25  C20 UNL     1       1.468  14.402  13.803  1.00  0.00     0.183 C 
HETATM   26  C21 UNL     1       0.642  14.140  15.052  1.00  0.00     0.204 C 
BRANCH  23  27
HETATM   27  C18 UNL     1      -1.480  16.380  13.765  1.00  0.00     0.198 C 
BRANCH  27  28
HETATM   28  O4  UNL     1      -0.583  17.389  14.199  1.00  0.00    -0.398 OA
HETATM   29  H31 UNL     1      -1.109  18.091  14.619  1.00  0.00     0.209 HD
ENDBRANCH  27  28
ENDBRANCH  23  27
BRANCH  24  30
HETATM   30  O5  UNL     1       1.280  15.263  11.578  1.00  0.00    -0.390 OA
HETATM   31  H33 UNL     1       2.250  15.343  11.648  1.00  0.00     0.210 HD
ENDBRANCH  24  30
BRANCH  25  32
HETATM   32  O6  UNL     1       2.775  14.881  14.164  1.00  0.00    -0.390 OA
HETATM   33  H35 UNL     1       3.041  14.341  14.935  1.00  0.00     0.210 HD
ENDBRANCH  25  32
BRANCH  26  34
HETATM   34  O7  UNL     1       1.359  13.245  15.921  1.00  0.00    -0.388 OA
HETATM   35  H37 UNL     1       1.057  12.349  15.657  1.00  0.00     0.210 HD
ENDBRANCH  26  34
ENDBRANCH  20  21
ENDBRANCH  10  20
BRANCH   4  36
HETATM   36  O1  UNL     1      -5.487   5.565  16.579  1.00  0.00    -0.389 OA
HETATM   37  H17 UNL     1      -5.439   5.926  17.481  1.00  0.00     0.210 HD
ENDBRANCH   4  36
BRANCH   1  38
HETATM   38  C4  UNL     1      -7.896   4.122  13.361  1.00  0.00    -0.014 C 
HETATM   39  C5  UNL     1      -7.920   5.002  12.101  1.00  0.00     0.010 C 
BRANCH  38  40
HETATM   40  C3  UNL     1      -7.208   2.781  12.967  1.00  0.00     0.004 C 
BRANCH  40  41
HETATM   41  C2  UNL     1      -6.144   2.817  11.864  1.00  0.00    -0.004 C 
HETATM   42  C1  UNL     1      -5.903   1.473  11.192  1.00  0.00     0.005 C 
ENDBRANCH  40  41
ENDBRANCH  38  40
ENDBRANCH   1  38
TORSDOF 11
ENDMDL
