MODEL 1
REMARK minimizedAffinity -8.67558479
REMARK CNNscore 0.4590666
REMARK CNNaffinity 6.59941864
REMARK  12 active torsions:
REMARK  status: ('A' for Active; 'I' for Inactive)
REMARK    1  A    between atoms: C3_3  and  O1_4 
REMARK    2  A    between atoms: N1_14  and  O2_16 
REMARK    3  A    between atoms: O2_16  and  C13_17 
REMARK    4  A    between atoms: C13_17  and  C14_18 
REMARK       I    between atoms: C14_18  and  N2_20 
REMARK    5  A    between atoms: N2_20  and  C15_21 
REMARK    6  A    between atoms: C15_21  and  C16_22 
REMARK    7  A    between atoms: C15_21  and  C27_38 
REMARK       I    between atoms: C16_22  and  N3_24 
REMARK    8  A    between atoms: N3_24  and  C17_25 
REMARK    9  A    between atoms: C17_25  and  C18_26 
REMARK   10  A    between atoms: C17_25  and  C20_30 
REMARK   11  A    between atoms: C18_26  and  C19_27 
REMARK   12  A    between atoms: C19_27  and  O6_29 
ROOT
HETATM    1  C1  UNL     1       0.317  50.883 -18.027  1.00  0.00     0.015 C 
HETATM    2  C2  UNL     1      -0.590  50.933 -18.812  1.00  0.00    -0.078 C 
HETATM    3  C3  UNL     1      -1.707  51.016 -19.767  1.00  0.00     0.128 C 
HETATM    4  C4  UNL     1      -1.342  51.832 -21.011  1.00  0.00     0.052 C 
HETATM    5  C5  UNL     1      -2.483  51.518 -21.973  1.00  0.00     0.010 C 
HETATM    6  C6  UNL     1      -2.773  50.027 -21.749  1.00  0.00     0.002 C 
HETATM    7  C7  UNL     1      -4.226  49.568 -22.008  1.00  0.00    -0.004 C 
HETATM    8  C8  UNL     1      -5.358  50.437 -21.422  1.00  0.00     0.010 C 
HETATM    9  C9  UNL     1      -6.511  49.694 -20.726  1.00  0.00     0.035 C 
HETATM   10  C10 UNL     1      -6.871  48.322 -21.248  1.00  0.00    -0.069 C 
HETATM   11  C11 UNL     1      -8.069  47.785 -20.948  1.00  0.00     0.030 C 
HETATM   12  C12 UNL     1      -8.441  46.397 -21.363  1.00  0.00     0.032 C 
HETATM   13  N1  UNL     1      -9.630  45.874 -21.290  1.00  0.00    -0.271 N 
ATOM     14  H1  UNL     1      -9.853  44.926 -21.595  1.00  0.00     0.194 HD
HETATM   15  C30 UNL     1      -7.356  45.505 -21.947  1.00  0.00     0.060 C 
HETATM   16  C31 UNL     1      -5.947  46.043 -21.710  1.00  0.00     0.020 C 
HETATM   17  C32 UNL     1      -5.814  47.555 -22.025  1.00  0.00    -0.016 C 
HETATM   18  C33 UNL     1      -6.073  47.772 -23.541  1.00  0.00     0.020 C 
HETATM   19  C34 UNL     1      -4.381  48.073 -21.647  1.00  0.00     0.002 C 
HETATM   20  C35 UNL     1      -3.960  47.786 -20.178  1.00  0.00     0.007 C 
HETATM   21  C36 UNL     1      -3.222  48.931 -19.473  1.00  0.00     0.014 C 
HETATM   22  C37 UNL     1      -2.181  49.645 -20.355  1.00  0.00     0.003 C 
HETATM   23  C38 UNL     1      -0.989  48.676 -20.594  1.00  0.00     0.020 C 
ENDROOT
BRANCH   3  24
HETATM   24  O1  UNL     1      -2.789  51.689 -19.121  1.00  0.00    -0.377 OA
HETATM   25  H2  UNL     1      -2.424  52.495 -18.717  1.00  0.00     0.211 HD
ENDBRANCH   3  24
BRANCH  13  26
HETATM   26  O2  UNL     1     -10.570  46.762 -20.743  1.00  0.00    -0.271 OA
BRANCH  26  27
HETATM   27  C13 UNL     1     -11.844  46.137 -20.717  1.00  0.00     0.303 C 
BRANCH  27  28
HETATM   28  C14 UNL     1     -13.020  47.109 -20.827  1.00  0.00     0.244 C 
HETATM   29  O3  UNL     1     -12.980  48.185 -21.426  1.00  0.00    -0.271 OA
HETATM   30  N2  UNL     1     -14.162  46.654 -20.179  1.00  0.00    -0.346 N 
HETATM   31  H16 UNL     1     -14.223  45.654 -20.027  1.00  0.00     0.163 HD
BRANCH  30  32
HETATM   32  C15 UNL     1     -15.450  47.325 -20.355  1.00  0.00     0.180 C 
BRANCH  32  33
HETATM   33  C16 UNL     1     -16.185  46.574 -21.489  1.00  0.00     0.241 C 
HETATM   34  O4  UNL     1     -15.628  46.306 -22.554  1.00  0.00    -0.271 OA
HETATM   35  N3  UNL     1     -17.473  46.188 -21.190  1.00  0.00    -0.354 N 
HETATM   36  H18 UNL     1     -17.874  46.481 -20.308  1.00  0.00     0.162 HD
BRANCH  35  37
HETATM   37  C17 UNL     1     -18.289  45.360 -22.093  1.00  0.00     0.098 C 
BRANCH  37  38
HETATM   38  C18 UNL     1     -19.178  46.286 -22.929  1.00  0.00     0.135 C 
BRANCH  38  39
HETATM   39  C19 UNL     1     -18.739  46.453 -24.352  1.00  0.00     0.141 C 
HETATM   40  O5  UNL     1     -19.372  47.016 -25.229  1.00  0.00    -0.650 OA
BRANCH  39  41
HETATM   41  O6  UNL     1     -17.507  45.977 -24.599  1.00  0.00    -0.776 OA
HETATM   42  H22 UNL     1     -17.340  46.205 -25.539  1.00  0.00     0.167 HD
ENDBRANCH  39  41
ENDBRANCH  38  39
ENDBRANCH  37  38
BRANCH  37  43
HETATM   43  C20 UNL     1     -18.998  44.272 -21.238  1.00  0.00     0.014 C 
HETATM   44  C21 UNL     1     -20.226  43.659 -21.922  1.00  0.00     0.033 C 
HETATM   45  C22 UNL     1     -20.814  42.551 -21.057  1.00  0.00     0.169 C 
HETATM   46  O7  UNL     1     -21.153  43.034 -19.759  1.00  0.00    -0.381 OA
HETATM   47  C23 UNL     1     -20.073  43.611 -19.011  1.00  0.00     0.054 C 
HETATM   48  C24 UNL     1     -19.076  42.530 -18.567  1.00  0.00     0.045 C 
HETATM   49  C25 UNL     1     -20.711  44.220 -17.753  1.00  0.00     0.045 C 
HETATM   50  C26 UNL     1     -19.396  44.735 -19.826  1.00  0.00     0.044 C 
ENDBRANCH  37  43
ENDBRANCH  35  37
ENDBRANCH  32  33
BRANCH  32  51
HETATM   51  C27 UNL     1     -16.244  47.346 -19.028  1.00  0.00     0.009 C 
HETATM   52  C28 UNL     1     -15.804  48.490 -18.110  1.00  0.00     0.012 C 
HETATM   53  C29 UNL     1     -17.764  47.396 -19.218  1.00  0.00     0.012 C 
ENDBRANCH  32  51
ENDBRANCH  30  32
ENDBRANCH  27  28
ENDBRANCH  26  27
ENDBRANCH  13  26
TORSDOF 12
ENDMDL
