MODEL 1
REMARK minimizedAffinity -8.46784592
REMARK  12 active torsions:
REMARK  status: ('A' for Active; 'I' for Inactive)
REMARK    1  A    between atoms: C4_4  and  C5_5 
REMARK    2  A    between atoms: C5_5  and  C6_6 
REMARK    3  A    between atoms: C6_6  and  C7_7 
REMARK    4  A    between atoms: C9_9  and  C10_10 
REMARK    5  A    between atoms: C11_11  and  C12_12 
REMARK    6  A    between atoms: C14_14  and  C15_15 
REMARK    7  A    between atoms: C19_20  and  C20_21 
REMARK    8  A    between atoms: C20_21  and  C21_22 
REMARK    9  A    between atoms: C21_22  and  C22_23 
REMARK   10  A    between atoms: C22_23  and  O2_24 
REMARK   11  A    between atoms: C24_26  and  C26_28 
REMARK   12  A    between atoms: C29_32  and  O4_34 
ROOT
HETATM    1  C15 UNL     1      -0.039   9.535  15.902  1.00  0.00     0.145 C 
HETATM    2  C16 UNL     1       0.774   9.022  14.710  1.00  0.00     0.051 C 
HETATM    3  C17 UNL     1       0.048   7.751  14.238  1.00  0.00     0.022 C 
HETATM    4  C18 UNL     1      -0.518   7.290  15.591  1.00  0.00     0.181 C 
HETATM    5  O1  UNL     1      -0.943   8.477  16.273  1.00  0.00    -0.381 OA
HETATM    6  C19 UNL     1      -1.103   8.028  13.183  1.00  0.00     0.029 C 
HETATM    7  C23 UNL     1      -1.817   6.695  12.860  1.00  0.00    -0.066 C 
HETATM    8  C24 UNL     1      -3.074   6.281  13.161  1.00  0.00    -0.021 C 
HETATM    9  C25 UNL     1      -3.689   5.003  12.642  1.00  0.00     0.052 C 
HETATM   10  C27 UNL     1      -0.839   5.757  12.160  1.00  0.00     0.038 C 
HETATM   11  C28 UNL     1       0.315   5.443  13.113  1.00  0.00     0.042 C 
HETATM   12  C29 UNL     1       1.051   6.698  13.628  1.00  0.00     0.065 C 
HETATM   13  C30 UNL     1       1.935   7.286  12.508  1.00  0.00     0.047 C 
ENDROOT
BRANCH   6  14
HETATM   14  C20 UNL     1      -1.957   9.308  13.372  1.00  0.00     0.012 C 
BRANCH  14  15
HETATM   15  C21 UNL     1      -3.049   9.242  14.455  1.00  0.00     0.027 C 
BRANCH  15  16
HETATM   16  C22 UNL     1      -3.447  10.584  15.060  1.00  0.00     0.164 C 
BRANCH  16  17
HETATM   17  O2  UNL     1      -4.819  10.570  15.426  1.00  0.00    -0.401 OA
HETATM   18  H34 UNL     1      -5.062  11.485  15.655  1.00  0.00     0.209 HD
ENDBRANCH  16  17
ENDBRANCH  15  16
ENDBRANCH  14  15
ENDBRANCH   6  14
BRANCH  12  19
HETATM   19  O4  UNL     1       1.957   6.262  14.653  1.00  0.00    -0.389 OA
HETATM   20  H46 UNL     1       2.618   5.668  14.255  1.00  0.00     0.210 HD
ENDBRANCH  12  19
BRANCH   1  21
HETATM   21  C14 UNL     1       0.809   9.868  17.097  1.00  0.00     0.011 C 
HETATM   22  C12 UNL     1       0.500  10.701  18.115  1.00  0.00    -0.063 C 
HETATM   23  C13 UNL     1      -0.791  11.477  18.186  1.00  0.00     0.048 C 
BRANCH  22  24
HETATM   24  C11 UNL     1       1.471  10.877  19.195  1.00  0.00     0.006 C 
HETATM   25  C10 UNL     1       1.365  10.410  20.451  1.00  0.00     0.001 C 
BRANCH  25  26
HETATM   26  C9  UNL     1       2.381  10.650  21.457  1.00  0.00     0.002 C 
HETATM   27  C7  UNL     1       2.782   9.807  22.430  1.00  0.00    -0.084 C 
HETATM   28  C8  UNL     1       2.271   8.407  22.648  1.00  0.00     0.043 C 
BRANCH  27  29
HETATM   29  C6  UNL     1       3.856  10.250  23.410  1.00  0.00     0.037 C 
BRANCH  29  30
HETATM   30  C5  UNL     1       4.482  11.593  23.017  1.00  0.00     0.031 C 
BRANCH  30  31
HETATM   31  C4  UNL     1       5.986  11.525  23.026  1.00  0.00    -0.024 C 
HETATM   32  C2  UNL     1       6.849  12.559  23.054  1.00  0.00    -0.091 C 
HETATM   33  C1  UNL     1       8.336  12.320  23.101  1.00  0.00     0.042 C 
HETATM   34  C3  UNL     1       6.455  14.011  23.026  1.00  0.00     0.042 C 
ENDBRANCH  30  31
ENDBRANCH  29  30
ENDBRANCH  27  29
ENDBRANCH  25  26
ENDBRANCH  22  24
ENDBRANCH   1  21
BRANCH   8  35
HETATM   35  C26 UNL     1      -3.971   7.013  14.106  1.00  0.00     0.265 C 
HETATM   36  O3  UNL     1      -5.045   6.565  14.490  1.00  0.00    -0.302 OA
ENDBRANCH   8  35
TORSDOF 12
ENDMDL
