MODEL 1
REMARK minimizedAffinity -8.71304989
REMARK CNNscore 0.636688948
REMARK CNNaffinity 6.73133802
REMARK  16 active torsions:
REMARK  status: ('A' for Active; 'I' for Inactive)
REMARK    1  A    between atoms: S1_2  and  C2_3 
REMARK    2  A    between atoms: C2_3  and  C3_4 
REMARK    3  A    between atoms: C3_4  and  C4_5 
REMARK    4  A    between atoms: C4_5  and  N1_6 
REMARK    5  A    between atoms: C4_5  and  C33_44 
REMARK       I    between atoms: N1_6  and  C5_7 
REMARK    6  A    between atoms: C5_7  and  C6_9 
REMARK    7  A    between atoms: C6_9  and  N2_11 
REMARK       I    between atoms: N2_11  and  C8_12 
REMARK    8  A    between atoms: C8_12  and  C9_14 
REMARK    9  A    between atoms: C9_14  and  C10_15 
REMARK   10  A    between atoms: C10_15  and  C11_16 
REMARK   11  A    between atoms: C11_16  and  O4_18 
REMARK   12  A    between atoms: O4_18  and  C12_19 
REMARK   13  A    between atoms: C12_19  and  C13_20 
REMARK   14  A    between atoms: C13_20  and  C14_22 
REMARK   15  A    between atoms: C14_22  and  O6_23 
REMARK   16  A    between atoms: C33_44  and  O10_46 
ROOT
HETATM    1  C12 UNL     1      -7.153  46.887 -23.782  1.00  0.00     0.260 C 
ENDROOT
BRANCH   1   2
HETATM    2  O4  UNL     1      -8.490  47.355 -23.901  1.00  0.00    -0.314 OA
BRANCH   2   3
HETATM    3  C11 UNL     1      -9.374  46.873 -22.992  1.00  0.00     0.259 C 
HETATM    4  O3  UNL     1      -9.090  46.619 -21.831  1.00  0.00    -0.265 OA
BRANCH   3   5
HETATM    5  C10 UNL     1     -10.714  46.586 -23.622  1.00  0.00     0.120 C 
BRANCH   5   6
HETATM    6  C9  UNL     1     -10.578  46.466 -25.137  1.00  0.00     0.112 C 
BRANCH   6   7
HETATM    7  C8  UNL     1     -11.744  47.129 -25.843  1.00  0.00     0.218 C 
HETATM    8  N2  UNL     1     -12.824  46.291 -26.031  1.00  0.00    -0.348 N 
HETATM    9  H14 UNL     1     -12.926  45.540 -25.355  1.00  0.00     0.163 HD
HETATM   10  O2  UNL     1     -11.715  48.290 -26.241  1.00  0.00    -0.274 OA
BRANCH   8  11
HETATM   11  C6  UNL     1     -14.079  46.840 -26.532  1.00  0.00     0.172 C 
HETATM   12  C7  UNL     1     -14.690  45.919 -27.578  1.00  0.00     0.042 C 
BRANCH  11  13
HETATM   13  C5  UNL     1     -15.045  46.977 -25.341  1.00  0.00     0.240 C 
HETATM   14  N1  UNL     1     -16.178  46.203 -25.430  1.00  0.00    -0.345 N 
HETATM   15  H9  UNL     1     -16.438  45.843 -26.344  1.00  0.00     0.163 HD
HETATM   16  O1  UNL     1     -14.779  47.673 -24.365  1.00  0.00    -0.271 OA
BRANCH  14  17
HETATM   17  C4  UNL     1     -17.285  46.344 -24.480  1.00  0.00     0.183 C 
BRANCH  17  18
HETATM   18  C3  UNL     1     -17.206  45.369 -23.294  1.00  0.00     0.046 C 
BRANCH  18  19
HETATM   19  C2  UNL     1     -17.139  45.999 -21.903  1.00  0.00     0.076 C 
BRANCH  19  20
HETATM   20  S1  UNL     1     -18.693  45.953 -20.956  1.00  0.00    -0.173 SA
HETATM   21  C1  UNL     1     -19.583  44.681 -21.890  1.00  0.00     0.089 C 
ENDBRANCH  19  20
ENDBRANCH  18  19
ENDBRANCH  17  18
BRANCH  17  22
HETATM   22  C33 UNL     1     -18.596  46.260 -25.259  1.00  0.00     0.163 C 
HETATM   23  O9  UNL     1     -18.772  45.611 -26.282  1.00  0.00    -0.648 OA
BRANCH  22  24
HETATM   24  O10 UNL     1     -19.580  47.041 -24.773  1.00  0.00    -0.775 OA
HETATM   25  H46 UNL     1     -20.330  46.889 -25.386  1.00  0.00     0.167 HD
ENDBRANCH  22  24
ENDBRANCH  17  22
ENDBRANCH  14  17
ENDBRANCH  11  13
ENDBRANCH   8  11
ENDBRANCH   6   7
ENDBRANCH   5   6
ENDBRANCH   3   5
ENDBRANCH   2   3
ENDBRANCH   1   2
BRANCH   1  26
HETATM   26  C13 UNL     1      -6.061  47.628 -22.984  1.00  0.00     0.185 C 
HETATM   27  O5  UNL     1      -5.483  47.042 -22.063  1.00  0.00    -0.292 OA
BRANCH  26  28
HETATM   28  C14 UNL     1      -5.727  49.100 -23.330  1.00  0.00     0.128 C 
HETATM   29  C15 UNL     1      -5.847  50.110 -22.161  1.00  0.00     0.047 C 
HETATM   30  C16 UNL     1      -4.786  51.201 -22.402  1.00  0.00     0.009 C 
HETATM   31  C17 UNL     1      -4.167  50.846 -23.748  1.00  0.00     0.002 C 
HETATM   32  C18 UNL     1      -2.833  51.480 -24.150  1.00  0.00     0.003 C 
HETATM   33  C31 UNL     1      -4.246  49.304 -23.821  1.00  0.00     0.005 C 
HETATM   34  C19 UNL     1      -1.840  51.817 -23.021  1.00  0.00     0.010 C 
HETATM   35  C28 UNL     1      -2.098  50.672 -25.244  1.00  0.00     0.072 C 
HETATM   36  C20 UNL     1      -0.417  52.081 -23.552  1.00  0.00     0.035 C 
HETATM   37  C21 UNL     1      -0.446  52.563 -24.984  1.00  0.00    -0.067 C 
HETATM   38  C22 UNL     1      -0.025  53.800 -25.293  1.00  0.00     0.053 C 
HETATM   39  C26 UNL     1      -1.088  51.601 -26.010  1.00  0.00    -0.009 C 
HETATM   40  C23 UNL     1      -0.144  54.344 -26.667  1.00  0.00     0.149 C 
HETATM   41  O7  UNL     1       0.355  55.438 -26.920  1.00  0.00    -0.293 OA
HETATM   42  C24 UNL     1      -0.846  53.516 -27.716  1.00  0.00     0.084 C 
HETATM   43  C25 UNL     1      -1.767  52.457 -27.112  1.00  0.00     0.022 C 
HETATM   44  C27 UNL     1       0.024  50.727 -26.628  1.00  0.00     0.021 C 
HETATM   45  C29 UNL     1      -3.069  49.814 -26.056  1.00  0.00     0.133 C 
HETATM   46  O8  UNL     1      -3.074  49.797 -27.288  1.00  0.00    -0.297 OA
HETATM   47  C30 UNL     1      -3.970  48.856 -25.277  1.00  0.00     0.091 C 
HETATM   48  C32 UNL     1      -3.249  48.612 -22.859  1.00  0.00     0.019 C 
BRANCH  28  49
HETATM   49  O6  UNL     1      -6.601  49.548 -24.373  1.00  0.00    -0.381 OA
HETATM   50  H21 UNL     1      -7.507  49.202 -24.206  1.00  0.00     0.211 HD
ENDBRANCH  28  49
ENDBRANCH  26  28
ENDBRANCH   1  26
TORSDOF 16
ENDMDL
