MODEL 1
REMARK minimizedAffinity -7.02316761
REMARK CNNscore 0.533443332
REMARK CNNaffinity 6.47194672
REMARK  6 active torsions:
REMARK  status: ('A' for Active; 'I' for Inactive)
REMARK    1  A    between atoms: C2_2  and  C30_31 
REMARK    2  A    between atoms: C3_3  and  C4_4 
REMARK    3  A    between atoms: C4_4  and  C5_5 
REMARK    4  A    between atoms: C5_5  and  C6_6 
REMARK    5  A    between atoms: C6_6  and  C8_8 
REMARK    6  A    between atoms: C30_31  and  O3_33 
ROOT
HETATM    1  C8  UNL     1     -10.860  44.294 -35.072  1.00  0.00    -0.002 C 
HETATM    2  C9  UNL     1     -11.330  43.166 -34.099  1.00  0.00     0.007 C 
HETATM    3  C10 UNL     1     -10.370  43.156 -32.895  1.00  0.00     0.015 C 
HETATM    4  C11 UNL     1      -9.165  43.996 -33.354  1.00  0.00    -0.013 C 
HETATM    5  C12 UNL     1      -8.266  43.038 -34.204  1.00  0.00     0.021 C 
HETATM    6  C13 UNL     1      -8.229  44.587 -32.301  1.00  0.00    -0.070 C 
HETATM    7  C14 UNL     1      -8.075  44.014 -31.097  1.00  0.00    -0.022 C 
HETATM    8  C15 UNL     1      -6.955  44.387 -30.191  1.00  0.00     0.034 C 
HETATM    9  C16 UNL     1      -6.715  45.903 -30.140  1.00  0.00     0.013 C 
HETATM   10  C17 UNL     1      -7.741  46.702 -29.240  1.00  0.00     0.018 C 
HETATM   11  C18 UNL     1      -6.977  47.674 -28.304  1.00  0.00     0.023 C 
HETATM   12  C19 UNL     1      -8.600  45.826 -28.299  1.00  0.00     0.023 C 
HETATM   13  C20 UNL     1      -8.675  47.545 -30.104  1.00  0.00     0.135 C 
HETATM   14  O1  UNL     1      -9.900  47.541 -29.952  1.00  0.00    -0.297 OA
HETATM   15  C21 UNL     1      -8.046  48.499 -31.084  1.00  0.00     0.080 C 
HETATM   16  C22 UNL     1      -6.695  48.019 -31.597  1.00  0.00     0.017 C 
HETATM   17  C23 UNL     1      -6.482  46.480 -31.608  1.00  0.00    -0.031 C 
HETATM   18  C24 UNL     1      -4.966  46.284 -31.941  1.00  0.00     0.016 C 
HETATM   19  C25 UNL     1      -7.276  45.690 -32.768  1.00  0.00     0.024 C 
HETATM   20  C26 UNL     1      -7.837  46.599 -33.899  1.00  0.00     0.010 C 
HETATM   21  C27 UNL     1      -8.799  45.937 -34.900  1.00  0.00     0.011 C 
HETATM   22  C28 UNL     1      -9.888  45.125 -34.173  1.00  0.00    -0.029 C 
HETATM   23  C29 UNL     1     -10.720  46.079 -33.261  1.00  0.00     0.016 C 
ENDROOT
BRANCH   1  24
HETATM   24  C6  UNL     1     -12.068  44.993 -35.774  1.00  0.00    -0.014 C 
HETATM   25  C7  UNL     1     -12.578  46.190 -34.964  1.00  0.00     0.010 C 
BRANCH  24  26
HETATM   26  C5  UNL     1     -11.672  45.458 -37.205  1.00  0.00     0.008 C 
BRANCH  26  27
HETATM   27  C4  UNL     1     -11.375  46.961 -37.341  1.00  0.00     0.028 C 
BRANCH  27  28
HETATM   28  C3  UNL     1     -11.142  47.444 -38.746  1.00  0.00    -0.013 C 
HETATM   29  C2  UNL     1     -11.926  48.245 -39.499  1.00  0.00     0.008 C 
HETATM   30  C1  UNL     1     -11.519  48.638 -40.892  1.00  0.00     0.055 C 
BRANCH  29  31
HETATM   31  C30 UNL     1     -13.243  48.736 -39.018  1.00  0.00     0.171 C 
HETATM   32  O2  UNL     1     -13.509  49.836 -38.566  1.00  0.00    -0.646 OA
BRANCH  31  33
HETATM   33  O3  UNL     1     -14.194  47.789 -39.109  1.00  0.00    -0.773 OA
HETATM   34  H46 UNL     1     -14.988  48.238 -38.749  1.00  0.00     0.167 HD
ENDBRANCH  31  33
ENDBRANCH  29  31
ENDBRANCH  27  28
ENDBRANCH  26  27
ENDBRANCH  24  26
ENDBRANCH   1  24
TORSDOF 6
ENDMDL
