MODEL 1
REMARK minimizedAffinity -9.12931252
REMARK  7 active torsions:
REMARK  status: ('A' for Active; 'I' for Inactive)
REMARK    1  A    between atoms: C2_2  and  C3_3 
REMARK    2  A    between atoms: C2_2  and  C9_10 
REMARK    3  A    between atoms: C3_3  and  C4_4 
REMARK    4  A    between atoms: C5_5  and  C6_6 
REMARK    5  A    between atoms: C6_6  and  O1_9 
REMARK    6  A    between atoms: C17_18  and  C18_19 
REMARK    7  A    between atoms: C18_19  and  O2_22 
ROOT
HETATM    1  C9  UNL     1      -3.631  50.669 -25.547  1.00  0.00    -0.002 C 
HETATM    2  C10 UNL     1      -3.646  52.197 -25.212  1.00  0.00     0.006 C 
HETATM    3  C11 UNL     1      -3.539  52.338 -23.678  1.00  0.00     0.011 C 
HETATM    4  C12 UNL     1      -3.788  50.913 -23.150  1.00  0.00    -0.032 C 
HETATM    5  C13 UNL     1      -5.344  50.730 -23.167  1.00  0.00     0.016 C 
HETATM    6  C14 UNL     1      -3.194  50.604 -21.748  1.00  0.00     0.003 C 
HETATM    7  C15 UNL     1      -3.615  51.582 -20.637  1.00  0.00     0.009 C 
HETATM    8  C16 UNL     1      -3.470  51.031 -19.223  1.00  0.00     0.042 C 
HETATM    9  C17 UNL     1      -2.311  50.029 -18.981  1.00  0.00     0.095 C 
HETATM   10  O3  UNL     1      -2.529  49.427 -17.678  1.00  0.00    -0.377 OA
HETATM   11  C21 UNL     1      -3.489  48.383 -17.639  1.00  0.00     0.169 C 
HETATM   12  C22 UNL     1      -2.976  47.160 -18.367  1.00  0.00     0.027 C 
HETATM   13  C23 UNL     1      -2.085  47.499 -19.554  1.00  0.00     0.010 C 
HETATM   14  C24 UNL     1      -2.232  48.928 -20.121  1.00  0.00     0.032 C 
HETATM   15  C25 UNL     1      -3.263  49.089 -21.329  1.00  0.00    -0.033 C 
HETATM   16  C26 UNL     1      -4.681  48.609 -20.948  1.00  0.00     0.016 C 
HETATM   17  C27 UNL     1      -2.799  48.172 -22.524  1.00  0.00     0.011 C 
HETATM   18  C28 UNL     1      -3.281  48.569 -23.941  1.00  0.00     0.011 C 
HETATM   19  C29 UNL     1      -3.027  50.058 -24.242  1.00  0.00    -0.032 C 
HETATM   20  C30 UNL     1      -1.476  50.270 -24.279  1.00  0.00     0.016 C 
ENDROOT
BRANCH   1  21
HETATM   21  C2  UNL     1      -2.967  50.382 -26.924  1.00  0.00    -0.010 C 
HETATM   22  C1  UNL     1      -1.492  50.796 -26.966  1.00  0.00     0.010 C 
BRANCH  21  23
HETATM   23  C3  UNL     1      -3.110  48.896 -27.356  1.00  0.00     0.031 C 
BRANCH  23  24
HETATM   24  C4  UNL     1      -4.509  48.344 -27.277  1.00  0.00    -0.027 C 
HETATM   25  C5  UNL     1      -5.260  48.073 -28.359  1.00  0.00     0.006 C 
BRANCH  25  26
HETATM   26  C6  UNL     1      -6.673  47.548 -28.396  1.00  0.00     0.068 C 
HETATM   27  C7  UNL     1      -7.251  47.149 -27.034  1.00  0.00     0.050 C 
HETATM   28  C8  UNL     1      -6.767  46.376 -29.376  1.00  0.00     0.050 C 
BRANCH  26  29
HETATM   29  O1  UNL     1      -7.466  48.621 -28.914  1.00  0.00    -0.387 OA
HETATM   30  H15 UNL     1      -8.395  48.341 -28.891  1.00  0.00     0.211 HD
ENDBRANCH  26  29
ENDBRANCH  25  26
ENDBRANCH  23  24
ENDBRANCH  21  23
ENDBRANCH   1  21
BRANCH   9  31
HETATM   31  C18 UNL     1      -0.913  50.804 -18.825  1.00  0.00     0.082 C 
HETATM   32  C19 UNL     1      -0.058  50.722 -20.107  1.00  0.00     0.049 C 
HETATM   33  C20 UNL     1      -0.050  50.255 -17.670  1.00  0.00     0.049 C 
BRANCH  31  34
HETATM   34  O2  UNL     1      -1.134  52.195 -18.556  1.00  0.00    -0.388 OA
HETATM   35  H35 UNL     1      -0.266  52.621 -18.455  1.00  0.00     0.210 HD
ENDBRANCH  31  34
ENDBRANCH   9  31
TORSDOF 7
ENDMDL
