MODEL 1
REMARK minimizedAffinity -9.58481693
REMARK  2 active torsions:
REMARK  status: ('A' for Active; 'I' for Inactive)
REMARK    1  A    between atoms: C3_4  and  C4_5 
REMARK       I    between atoms: N3_16  and  C13_17 
REMARK       I    between atoms: C13_17  and  N4_19 
REMARK    2  A    between atoms: N4_19  and  C14_20 
ROOT
HETATM    1  C4  UNL     1       9.121  11.851  20.131  1.00  0.00    -0.020 A 
HETATM    2  C5  UNL     1      10.459  11.643  19.758  1.00  0.00     0.015 A 
HETATM    3  C6  UNL     1      10.786  10.858  18.645  1.00  0.00     0.033 A 
HETATM    4  C7  UNL     1       9.778  10.251  17.899  1.00  0.00     0.068 A 
HETATM    5  N2  UNL     1      10.144   9.453  16.797  1.00  0.00    -0.325 N 
HETATM    6  C8  UNL     1       9.369   8.392  16.376  1.00  0.00     0.222 C 
HETATM    7  O1  UNL     1       8.856   7.567  17.125  1.00  0.00    -0.273 OA
HETATM    8  C9  UNL     1       9.197   8.361  14.873  1.00  0.00     0.108 C 
HETATM    9  C10 UNL     1       7.822   7.801  14.476  1.00  0.00     0.001 C 
HETATM   10  C11 UNL     1       7.708   7.658  12.941  1.00  0.00     0.025 C 
HETATM   11  C12 UNL     1       6.530   8.387  12.314  1.00  0.00     0.128 C 
HETATM   12  N3  UNL     1       5.267   8.163  13.004  1.00  0.00    -0.334 N 
HETATM   13  C13 UNL     1       4.097   8.440  12.295  1.00  0.00     0.322 C 
HETATM   14  O2  UNL     1       4.137   8.966  11.185  1.00  0.00    -0.247 OA
HETATM   15  N4  UNL     1       2.942   8.058  12.939  1.00  0.00    -0.309 N 
HETATM   16  C20 UNL     1       5.319   7.876  14.441  1.00  0.00     0.132 C 
HETATM   17  C21 UNL     1       6.571   8.457  15.134  1.00  0.00     0.010 C 
HETATM   18  C22 UNL     1       6.461  10.005  15.182  1.00  0.00     0.033 C 
HETATM   19  C23 UNL     1       7.335  10.766  16.185  1.00  0.00     0.176 C 
HETATM   20  O3  UNL     1       7.377  10.091  17.446  1.00  0.00    -0.349 OA
HETATM   21  C24 UNL     1       8.434  10.519  18.218  1.00  0.00     0.096 A 
HETATM   22  C25 UNL     1       8.111  11.278  19.347  1.00  0.00     0.051 A 
HETATM   23  H7  UNL     1      11.076   9.535  16.416  1.00  0.00     0.169 HD
HETATM   24  H15 UNL     1       3.061   7.350  13.645  1.00  0.00     0.170 HD
ENDROOT
BRANCH  15  25
HETATM   25  C14 UNL     1       1.613   8.342  12.563  1.00  0.00     0.037 A 
HETATM   26  C15 UNL     1       0.587   8.594  13.475  1.00  0.00     0.029 A 
HETATM   27  C16 UNL     1      -0.715   8.847  13.030  1.00  0.00     0.004 A 
HETATM   28  C17 UNL     1      -1.002   8.848  11.668  1.00  0.00     0.024 A 
HETATM   29  C18 UNL     1       0.016   8.591  10.755  1.00  0.00     0.036 A 
HETATM   30 CL1  UNL     1      -0.334   8.575   9.069  1.00  0.00    -0.084 Cl
HETATM   31  C19 UNL     1       1.316   8.337  11.194  1.00  0.00     0.053 A 
ENDBRANCH  15  25
BRANCH   1  32
HETATM   32  C3  UNL     1       8.807  12.651  21.306  1.00  0.00     0.008 A 
HETATM   33  C2  UNL     1       8.868  14.028  21.383  1.00  0.00     0.123 A 
HETATM   34  N1  UNL     1       8.498  14.362  22.654  1.00  0.00    -0.307 N 
HETATM   35  C1  UNL     1       8.400  15.689  23.209  1.00  0.00     0.177 C 
HETATM   36  N5  UNL     1       8.213  13.301  23.426  1.00  0.00    -0.310 N 
HETATM   37  C26 UNL     1       8.392  12.263  22.604  1.00  0.00     0.120 A 
ATOM     38  H5  UNL     1       7.928  13.290  24.405  1.00  0.00     0.186 HD
ENDBRANCH   1  32
TORSDOF 2
ENDMDL
