MODEL 1
REMARK minimizedAffinity -8.03755474
REMARK CNNscore 0.713401794
REMARK CNNaffinity 5.59730673
REMARK  11 active torsions:
REMARK  status: ('A' for Active; 'I' for Inactive)
REMARK    1  A    between atoms: C2_2  and  O1_3 
REMARK    2  A    between atoms: C2_2  and  C3_4 
REMARK    3  A    between atoms: C4_5  and  C5_6 
REMARK    4  A    between atoms: C5_6  and  O2_7 
REMARK    5  A    between atoms: C9_11  and  O3_12 
REMARK    6  A    between atoms: O3_12  and  C10_13 
REMARK    7  A    between atoms: C11_15  and  C12_16 
REMARK    8  A    between atoms: C12_16  and  O5_17 
REMARK    9  A    between atoms: C13_18  and  O6_19 
REMARK   10  A    between atoms: C14_20  and  O7_21 
REMARK   11  A    between atoms: C15_22  and  O8_23 
ROOT
HETATM    1  C5  UNL     1      -8.172   6.285  14.301  1.00  0.00     0.086 C 
HETATM    2  C6  UNL     1      -7.558   5.502  13.081  1.00  0.00     0.023 C 
HETATM    3  C7  UNL     1      -8.318   4.213  12.720  1.00  0.00     0.013 C 
HETATM    4  C8  UNL     1      -6.093   5.138  13.357  1.00  0.00     0.039 C 
HETATM    5  C9  UNL     1      -5.201   6.373  13.487  1.00  0.00     0.126 C 
HETATM    6  C16 UNL     1      -5.997   7.631  13.867  1.00  0.00     0.044 C 
HETATM    7  C17 UNL     1      -7.153   7.384  14.875  1.00  0.00    -0.010 C 
HETATM    8  C18 UNL     1      -6.558   6.969  16.245  1.00  0.00     0.018 C 
HETATM    9  C19 UNL     1      -7.816   8.768  15.118  1.00  0.00     0.018 C 
ENDROOT
BRANCH   5  10
HETATM   10  O3  UNL     1      -4.182   6.177  14.473  1.00  0.00    -0.353 OA
BRANCH  10  11
HETATM   11  C10 UNL     1      -3.116   7.131  14.427  1.00  0.00     0.292 C 
HETATM   12  O4  UNL     1      -2.517   7.196  13.137  1.00  0.00    -0.348 OA
HETATM   13  C11 UNL     1      -1.326   6.419  12.939  1.00  0.00     0.179 C 
HETATM   14  C13 UNL     1      -0.211   6.861  13.910  1.00  0.00     0.180 C 
HETATM   15  C14 UNL     1      -0.748   7.346  15.264  1.00  0.00     0.183 C 
HETATM   16  C15 UNL     1      -2.131   6.791  15.570  1.00  0.00     0.204 C 
BRANCH  13  17
HETATM   17  C12 UNL     1      -1.584   4.900  12.968  1.00  0.00     0.198 C 
BRANCH  17  18
HETATM   18  O5  UNL     1      -0.482   4.216  12.370  1.00  0.00    -0.398 OA
HETATM   19  H20 UNL     1      -0.840   3.619  11.680  1.00  0.00     0.209 HD
ENDBRANCH  17  18
ENDBRANCH  13  17
BRANCH  14  20
HETATM   20  O6  UNL     1       0.507   7.973  13.334  1.00  0.00    -0.390 OA
HETATM   21  H22 UNL     1       0.952   7.652  12.531  1.00  0.00     0.210 HD
ENDBRANCH  14  20
BRANCH  15  22
HETATM   22  O7  UNL     1       0.156   6.942  16.309  1.00  0.00    -0.390 OA
HETATM   23  H24 UNL     1      -0.326   7.079  17.148  1.00  0.00     0.210 HD
ENDBRANCH  15  22
BRANCH  16  24
HETATM   24  O8  UNL     1      -2.565   7.312  16.846  1.00  0.00    -0.388 OA
HETATM   25  H26 UNL     1      -2.778   8.255  16.732  1.00  0.00     0.210 HD
ENDBRANCH  16  24
ENDBRANCH  10  11
ENDBRANCH   5  10
BRANCH   1  26
HETATM   26  C4  UNL     1      -9.556   6.859  14.025  1.00  0.00     0.010 C 
HETATM   27  C3  UNL     1     -10.616   6.946  14.852  1.00  0.00     0.003 C 
BRANCH  27  28
HETATM   28  C2  UNL     1     -11.970   7.518  14.517  1.00  0.00     0.136 C 
HETATM   29  C1  UNL     1     -12.979   6.415  14.208  1.00  0.00     0.043 C 
BRANCH  28  30
HETATM   30  O1  UNL     1     -11.896   8.398  13.401  1.00  0.00    -0.392 OA
HETATM   31  H5  UNL     1     -11.662   7.859  12.626  1.00  0.00     0.210 HD
ENDBRANCH  28  30
ENDBRANCH  27  28
ENDBRANCH   1  26
BRANCH   1  32
HETATM   32  O2  UNL     1      -8.400   5.314  15.343  1.00  0.00    -0.385 OA
HETATM   33  H8  UNL     1      -9.182   4.791  15.095  1.00  0.00     0.211 HD
ENDBRANCH   1  32
TORSDOF 11
ENDMDL
