MODEL 1
REMARK minimizedAffinity -8.30186176
REMARK CNNscore 0.70292449
REMARK CNNaffinity 7.82768059
REMARK  11 active torsions:
REMARK  status: ('A' for Active; 'I' for Inactive)
REMARK    1  A    between atoms: C12_13  and  O2_14 
REMARK    2  A    between atoms: C19_21  and  O3_22 
REMARK    3  A    between atoms: C19_21  and  C20_23 
REMARK    4  A    between atoms: C20_23  and  C21_25 
REMARK    5  A    between atoms: C21_25  and  O5_26 
REMARK    6  A    between atoms: O5_26  and  C22_27 
REMARK    7  A    between atoms: C22_27  and  C23_29 
REMARK    8  A    between atoms: C23_29  and  C24_30 
REMARK    9  A    between atoms: C24_30  and  C25_31 
REMARK       I    between atoms: C25_31  and  N1_33 
REMARK   10  A    between atoms: N1_33  and  C26_34 
REMARK   11  A    between atoms: C26_34  and  C27_35 
ROOT
HETATM    1  C1  UNL     1      -8.110   5.497  15.643  1.00  0.00     0.020 C 
HETATM    2  C2  UNL     1      -7.893   6.555  14.533  1.00  0.00    -0.014 C 
HETATM    3  C3  UNL     1      -8.898   7.727  14.756  1.00  0.00     0.022 C 
HETATM    4  C4  UNL     1     -10.345   7.371  14.444  1.00  0.00     0.084 C 
HETATM    5  C5  UNL     1     -10.451   6.853  13.034  1.00  0.00     0.149 C 
HETATM    6  O1  UNL     1     -11.445   7.039  12.335  1.00  0.00    -0.293 OA
HETATM    7  C6  UNL     1      -9.341   6.019  12.515  1.00  0.00     0.053 C 
HETATM    8  C7  UNL     1      -8.202   5.841  13.210  1.00  0.00    -0.068 C 
HETATM    9  C8  UNL     1      -7.165   4.866  12.692  1.00  0.00     0.035 C 
HETATM   10  C9  UNL     1      -5.736   5.190  13.137  1.00  0.00     0.010 C 
HETATM   11  C10 UNL     1      -5.564   6.702  13.316  1.00  0.00    -0.002 C 
HETATM   12  C11 UNL     1      -6.422   7.190  14.516  1.00  0.00     0.031 C 
HETATM   13  C12 UNL     1      -5.671   7.078  15.861  1.00  0.00     0.124 C 
HETATM   14  C13 UNL     1      -4.272   7.690  15.809  1.00  0.00     0.045 C 
HETATM   15  C14 UNL     1      -3.356   7.097  14.707  1.00  0.00     0.001 C 
HETATM   16  C15 UNL     1      -2.931   5.678  15.116  1.00  0.00     0.019 C 
HETATM   17  C16 UNL     1      -4.083   7.139  13.350  1.00  0.00     0.002 C 
HETATM   18  C17 UNL     1      -3.912   8.601  12.890  1.00  0.00     0.009 C 
HETATM   19  C18 UNL     1      -2.633   9.131  13.541  1.00  0.00     0.047 C 
HETATM   20  C19 UNL     1      -2.117   8.020  14.463  1.00  0.00     0.128 C 
ENDROOT
BRANCH  20  21
HETATM   21  O3  UNL     1      -1.727   8.630  15.708  1.00  0.00    -0.381 OA
HETATM   22  H27 UNL     1      -0.865   8.237  15.960  1.00  0.00     0.211 HD
ENDBRANCH  20  21
BRANCH  20  23
HETATM   23  C20 UNL     1      -0.822   7.346  13.919  1.00  0.00     0.185 C 
HETATM   24  O4  UNL     1      -0.889   6.185  13.485  1.00  0.00    -0.292 OA
BRANCH  23  25
HETATM   25  C21 UNL     1       0.506   8.100  13.954  1.00  0.00     0.260 C 
BRANCH  25  26
HETATM   26  O5  UNL     1       0.580   9.091  12.923  1.00  0.00    -0.314 OA
BRANCH  26  27
HETATM   27  C22 UNL     1       1.203   8.674  11.786  1.00  0.00     0.259 C 
HETATM   28  O6  UNL     1       2.409   8.723  11.596  1.00  0.00    -0.265 OA
BRANCH  27  29
HETATM   29  C23 UNL     1       0.209   8.134  10.799  1.00  0.00     0.120 C 
BRANCH  29  30
HETATM   30  C24 UNL     1       0.871   7.133   9.863  1.00  0.00     0.112 C 
BRANCH  30  31
HETATM   31  C25 UNL     1       1.183   5.838  10.580  1.00  0.00     0.218 C 
HETATM   32  O7  UNL     1       2.319   5.490  10.884  1.00  0.00    -0.274 OA
HETATM   33  N1  UNL     1       0.062   5.090  10.863  1.00  0.00    -0.356 N 
HETATM   34  H34 UNL     1      -0.848   5.528  10.782  1.00  0.00     0.162 HD
BRANCH  33  35
HETATM   35  C26 UNL     1       0.156   3.899  11.676  1.00  0.00     0.168 C 
BRANCH  35  36
HETATM   36  C27 UNL     1      -1.163   3.200  11.645  1.00  0.00     0.000 A 
HETATM   37  C28 UNL     1      -2.397   3.688  12.032  1.00  0.00     0.017 A 
HETATM   38  C29 UNL     1      -3.442   2.737  11.843  1.00  0.00     0.008 A 
HETATM   39  C30 UNL     1      -2.970   1.550  11.329  1.00  0.00     0.050 A 
HETATM   40  S1  UNL     1      -1.277   1.584  11.081  1.00  0.00    -0.105 SA
ENDBRANCH  35  36
ENDBRANCH  33  35
ENDBRANCH  30  31
ENDBRANCH  29  30
ENDBRANCH  27  29
ENDBRANCH  26  27
ENDBRANCH  25  26
ENDBRANCH  23  25
ENDBRANCH  20  23
BRANCH  13  41
HETATM   41  O2  UNL     1      -6.412   7.782  16.859  1.00  0.00    -0.395 OA
HETATM   42  H16 UNL     1      -5.916   7.724  17.695  1.00  0.00     0.210 HD
ENDBRANCH  13  41
TORSDOF 11
ENDMDL
