MODEL 1
REMARK minimizedAffinity -9.71649742
REMARK  5 active torsions:
REMARK  status: ('A' for Active; 'I' for Inactive)
REMARK    1  A    between atoms: C2_2  and  C25_28 
REMARK    2  A    between atoms: C3_3  and  C4_4 
REMARK    3  A    between atoms: C4_4  and  C6_6 
REMARK    4  A    between atoms: C15_15  and  O1_16 
REMARK    5  A    between atoms: C25_28  and  C27_30 
ROOT
HETATM    1  C6  UNL     1      -1.880   5.458  13.318  1.00  0.00     0.001 C 
HETATM    2  C7  UNL     1      -1.946   4.690  11.963  1.00  0.00     0.006 C 
HETATM    3  C8  UNL     1      -0.662   5.027  11.189  1.00  0.00     0.009 C 
HETATM    4  C9  UNL     1       0.172   5.810  12.195  1.00  0.00     0.036 C 
HETATM    5  C10 UNL     1       1.402   6.585  11.710  1.00  0.00     0.123 C 
HETATM    6  C11 UNL     1       1.213   7.528  10.546  1.00  0.00     0.014 C 
HETATM    7  C12 UNL     1       2.355   8.082  10.115  1.00  0.00     0.014 C 
HETATM    8  C13 UNL     1       3.566   7.698  10.937  1.00  0.00     0.124 C 
HETATM    9  C14 UNL     1       4.872   8.251  10.357  1.00  0.00     0.078 C 
HETATM   10  C15 UNL     1       6.079   7.873  11.218  1.00  0.00     0.121 C 
HETATM   11  C16 UNL     1       5.898   8.249  12.689  1.00  0.00     0.033 C 
HETATM   12  C17 UNL     1       4.593   7.703  13.268  1.00  0.00     0.015 C 
HETATM   13  C18 UNL     1       3.341   8.105  12.436  1.00  0.00     0.001 C 
HETATM   14  C19 UNL     1       3.135   9.636  12.578  1.00  0.00     0.019 C 
HETATM   15  C20 UNL     1       2.089   7.272  12.940  1.00  0.00     0.039 C 
HETATM   16  C21 UNL     1       1.098   8.023  13.853  1.00  0.00     0.010 C 
HETATM   17  C22 UNL     1      -0.122   7.171  14.251  1.00  0.00     0.010 C 
HETATM   18  C23 UNL     1      -0.867   6.611  13.022  1.00  0.00    -0.033 C 
HETATM   19  C24 UNL     1      -1.557   7.761  12.256  1.00  0.00     0.016 C 
HETATM   20  O2  UNL     1       3.667   6.247  10.906  1.00  0.00    -0.223 OA
HETATM   21  O3  UNL     1       2.355   5.603  11.217  1.00  0.00    -0.224 OA
ENDROOT
BRANCH   1  22
HETATM   22  C4  UNL     1      -3.296   5.802  13.855  1.00  0.00     0.009 C 
HETATM   23  C5  UNL     1      -3.382   5.782  15.382  1.00  0.00     0.014 C 
BRANCH  22  24
HETATM   24  C3  UNL     1      -4.310   4.804  13.321  1.00  0.00    -0.019 C 
HETATM   25  C2  UNL     1      -5.630   4.986  13.100  1.00  0.00    -0.083 C 
HETATM   26  C1  UNL     1      -6.380   6.259  13.396  1.00  0.00     0.043 C 
BRANCH  25  27
HETATM   27  C25 UNL     1      -6.505   3.865  12.523  1.00  0.00     0.013 C 
HETATM   28  C26 UNL     1      -7.416   3.296  13.621  1.00  0.00     0.015 C 
BRANCH  27  29
HETATM   29  C27 UNL     1      -5.682   2.764  11.787  1.00  0.00    -0.015 C 
HETATM   30  C28 UNL     1      -5.302   3.201  10.364  1.00  0.00     0.010 C 
HETATM   31  C29 UNL     1      -6.440   1.434  11.707  1.00  0.00     0.010 C 
ENDBRANCH  27  29
ENDBRANCH  25  27
ENDBRANCH  22  24
ENDBRANCH   1  22
BRANCH  10  32
HETATM   32  O1  UNL     1       7.245   8.518  10.709  1.00  0.00    -0.395 OA
HETATM   33  H20 UNL     1       7.121   9.480  10.787  1.00  0.00     0.210 HD
ENDBRANCH  10  32
TORSDOF 5
ENDMDL
