MODEL 1
REMARK minimizedAffinity -8.82062817
REMARK CNNscore 0.694028139
REMARK CNNaffinity 6.88840866
REMARK  12 active torsions:
REMARK  status: ('A' for Active; 'I' for Inactive)
REMARK    1  A    between atoms: C2_2  and  C27_36 
REMARK    2  A    between atoms: C3_3  and  C4_4 
REMARK    3  A    between atoms: C4_4  and  C5_5 
REMARK    4  A    between atoms: C5_5  and  C6_6 
REMARK    5  A    between atoms: C6_6  and  C8_8 
REMARK    6  A    between atoms: C10_10  and  O1_11 
REMARK    7  A    between atoms: O1_11  and  S1_12 
REMARK    8  A    between atoms: C11_16  and  O5_17 
REMARK    9  A    between atoms: C12_18  and  O6_19 
REMARK   10  A    between atoms: C14_21  and  O7_22 
REMARK   11  A    between atoms: C17_25  and  O8_26 
REMARK   12  A    between atoms: C27_36  and  O9_37 
ROOT
HETATM    1  C8  UNL     1      -2.007  10.050  15.289  1.00  0.00     0.005 C 
HETATM    2  C9  UNL     1      -0.924   9.940  16.416  1.00  0.00     0.044 C 
HETATM    3  C10 UNL     1       0.191   9.024  15.878  1.00  0.00     0.201 C 
HETATM    4  C11 UNL     1       0.020   9.122  14.354  1.00  0.00     0.162 A 
HETATM    5  C12 UNL     1       0.843   8.171  13.424  1.00  0.00     0.139 A 
HETATM    6  C13 UNL     1       2.348   8.520  13.361  1.00  0.00     0.093 C 
HETATM    7  C14 UNL     1       3.130   7.586  12.434  1.00  0.00     0.127 C 
HETATM    8  C15 UNL     1       2.595   7.690  10.999  1.00  0.00     0.025 C 
HETATM    9  C16 UNL     1       3.414   6.845  10.004  1.00  0.00     0.039 C 
HETATM   10  C17 UNL     1       2.924   7.003   8.559  1.00  0.00     0.118 C 
HETATM   11  C18 UNL     1       1.731   7.941   8.407  1.00  0.00     0.032 C 
HETATM   12  C19 UNL     1       0.605   7.727   9.431  1.00  0.00     0.012 C 
HETATM   13  C20 UNL     1       1.067   7.390  10.891  1.00  0.00    -0.030 C 
HETATM   14  C21 UNL     1       0.771   5.887  11.135  1.00  0.00     0.016 C 
HETATM   15  C22 UNL     1       0.303   8.301  11.942  1.00  0.00     0.050 C 
HETATM   16  C23 UNL     1      -1.239   8.208  11.852  1.00  0.00     0.011 C 
HETATM   17  C24 UNL     1      -1.949   9.195  12.795  1.00  0.00     0.015 C 
HETATM   18  C25 UNL     1      -1.544   8.955  14.257  1.00  0.00     0.013 C 
HETATM   19  C26 UNL     1      -2.090   7.564  14.696  1.00  0.00     0.020 C 
HETATM   20 NA1  UNL     1      -0.931   9.192  14.136  1.00  0.00    -0.358 Na
ATOM     21  HA1 UNL     1      -1.906   9.487  14.195  1.00  0.00     0.159 HD
ENDROOT
BRANCH   1  22
HETATM   22  C6  UNL     1      -3.455  10.016  15.862  1.00  0.00    -0.013 C 
HETATM   23  C7  UNL     1      -3.487  10.319  17.366  1.00  0.00     0.010 C 
BRANCH  22  24
HETATM   24  C5  UNL     1      -4.122   8.637  15.602  1.00  0.00     0.008 C 
BRANCH  24  25
HETATM   25  C4  UNL     1      -5.553   8.758  15.062  1.00  0.00     0.028 C 
BRANCH  25  26
HETATM   26  C3  UNL     1      -6.124   7.408  14.718  1.00  0.00    -0.022 C 
HETATM   27  C2  UNL     1      -7.023   6.682  15.412  1.00  0.00    -0.064 C 
HETATM   28  C1  UNL     1      -7.627   7.085  16.731  1.00  0.00     0.045 C 
BRANCH  27  29
HETATM   29  C27 UNL     1      -7.513   5.357  14.882  1.00  0.00     0.197 C 
BRANCH  29  30
HETATM   30  O9  UNL     1      -7.909   4.539  15.972  1.00  0.00    -0.397 OA
HETATM   31  H45 UNL     1      -7.135   4.478  16.559  1.00  0.00     0.209 HD
ENDBRANCH  29  30
ENDBRANCH  27  29
ENDBRANCH  25  26
ENDBRANCH  24  25
ENDBRANCH  22  24
ENDBRANCH   1  22
BRANCH   3  32
HETATM   32  O1  UNL     1       1.465   9.464  16.296  1.00  0.00    -0.246 OA
BRANCH  32  33
HETATM   33  S1  UNL     1       1.517  10.393  17.640  1.00  0.00     0.252 S 
HETATM   34  O2  UNL     1       0.240  10.103  18.301  1.00  0.00    -0.572 OA
HETATM   35  O3  UNL     1       2.683   9.881  18.349  1.00  0.00    -0.572 OA
HETATM   36  O4  UNL     1       1.640  11.745  17.110  1.00  0.00    -0.572 OA
ENDBRANCH  32  33
ENDBRANCH   3  32
BRANCH   4  37
HETATM   37  O5  UNL     1       0.364  10.484  13.964  1.00  0.00    -0.368 OA
HETATM   38  H17 UNL     1       1.148  10.716  14.506  1.00  0.00     0.212 HD
ENDBRANCH   4  37
BRANCH   5  39
HETATM   39  O6  UNL     1       0.729   6.831  13.906  1.00  0.00    -0.370 OA
HETATM   40  H18 UNL     1       1.265   6.766  14.739  1.00  0.00     0.212 HD
ENDBRANCH   5  39
BRANCH   7  41
HETATM   41  O7  UNL     1       4.503   7.989  12.448  1.00  0.00    -0.395 OA
HETATM   42  H22 UNL     1       4.787   7.956  13.383  1.00  0.00     0.210 HD
ENDBRANCH   7  41
BRANCH  10  43
HETATM   43  O8  UNL     1       2.619   5.729   7.992  1.00  0.00    -0.396 OA
HETATM   44  H27 UNL     1       1.822   5.390   8.431  1.00  0.00     0.210 HD
ENDBRANCH  10  43
TORSDOF 12
ENDMDL
