MODEL 1
REMARK minimizedAffinity -9.4115715
REMARK  6 active torsions:
REMARK  status: ('A' for Active; 'I' for Inactive)
REMARK    1  A    between atoms: C2_2  and  N1_3 
REMARK    2  A    between atoms: N1_3  and  C3_4 
REMARK    3  A    between atoms: N1_3  and  C22_25 
REMARK    4  A    between atoms: C3_4  and  C4_5 
REMARK    5  A    between atoms: C5_6  and  C6_7 
REMARK    6  A    between atoms: C9_11  and  C10_12 
ROOT
HETATM    1  C6  UNL     1      -2.010   4.422  12.277  1.00  0.00    -0.033 C 
HETATM    2  C7  UNL     1      -3.208   3.912  11.803  1.00  0.00     0.036 C 
HETATM    3  C8  UNL     1      -4.430   4.435  12.252  1.00  0.00     0.043 C 
HETATM    4 CL1  UNL     1      -5.825   3.541  11.711  1.00  0.00    -0.084 Cl
HETATM    5  C9  UNL     1      -4.517   5.542  13.151  1.00  0.00    -0.010 C 
HETATM    6  C20 UNL     1      -3.283   5.960  13.690  1.00  0.00     0.043 C 
HETATM    7 CL2  UNL     1      -3.082   7.029  15.034  1.00  0.00    -0.084 Cl
HETATM    8  C21 UNL     1      -2.059   5.436  13.228  1.00  0.00     0.036 C 
ENDROOT
BRANCH   1   9
HETATM    9  C5  UNL     1      -0.740   3.881  11.790  1.00  0.00     0.009 C 
HETATM   10  C4  UNL     1       0.416   4.558  11.692  1.00  0.00    -0.007 C 
BRANCH  10  11
HETATM   11  C3  UNL     1       0.695   5.976  12.115  1.00  0.00     0.144 C 
BRANCH  11  12
HETATM   12  N1  UNL     1       0.342   6.961  11.084  1.00  0.00    -0.405 N 
BRANCH  12  13
HETATM   13  C2  UNL     1       0.192   8.309  11.643  1.00  0.00     0.113 C 
HETATM   14  C1  UNL     1      -1.230   8.823  11.824  1.00  0.00     0.026 C 
ENDBRANCH  12  13
BRANCH  12  15
HETATM   15  C22 UNL     1       1.037   6.812   9.786  1.00  0.00     0.079 C 
HETATM   16  C23 UNL     1       2.470   6.251   9.821  1.00  0.00     0.025 C 
HETATM   17  C24 UNL     1       3.004   5.911   8.421  1.00  0.00     0.002 C 
HETATM   18  C25 UNL     1       2.232   6.569   7.281  1.00  0.00     0.000 C 
HETATM   19  C26 UNL     1       1.828   7.993   7.627  1.00  0.00     0.002 C 
HETATM   20  C27 UNL     1       0.996   8.089   8.911  1.00  0.00     0.025 C 
ENDBRANCH  12  15
ENDBRANCH  11  12
ENDBRANCH  10  11
ENDBRANCH   1   9
BRANCH   5  21
HETATM   21  C10 UNL     1      -5.916   6.113  13.466  1.00  0.00     0.030 C 
HETATM   22  C11 UNL     1      -7.226   5.262  13.420  1.00  0.00    -0.005 C 
HETATM   23  C12 UNL     1      -7.429   4.390  14.681  1.00  0.00     0.010 C 
HETATM   24  C16 UNL     1      -8.427   6.245  13.355  1.00  0.00     0.010 C 
HETATM   25  C13 UNL     1      -7.465   5.254  15.944  1.00  0.00    -0.013 C 
HETATM   26  C14 UNL     1      -8.637   6.240  15.853  1.00  0.00     0.009 C 
HETATM   27  C19 UNL     1      -6.137   6.013  16.031  1.00  0.00     0.010 C 
HETATM   28  C15 UNL     1      -8.470   7.130  14.613  1.00  0.00    -0.013 C 
HETATM   29  C17 UNL     1      -7.153   7.909  14.742  1.00  0.00     0.010 C 
HETATM   30  C18 UNL     1      -5.961   6.931  14.809  1.00  0.00    -0.005 C 
ENDBRANCH   5  21
TORSDOF 6
ENDMDL
