MODEL 1
REMARK minimizedAffinity -9.16064835
REMARK  4 active torsions:
REMARK  status: ('A' for Active; 'I' for Inactive)
REMARK    1  A    between atoms: C4_4  and  C5_5 
REMARK    2  A    between atoms: C5_5  and  C6_6 
REMARK    3  A    between atoms: C6_6  and  C7_7 
REMARK    4  A    between atoms: C9_9  and  O1_10 
ROOT
HETATM    1  C7  UNL     1      -1.853  52.212 -23.069  1.00  0.00    -0.007 C 
HETATM    2  C8  UNL     1      -3.097  52.215 -23.960  1.00  0.00     0.038 C 
HETATM    3  C9  UNL     1      -4.339  51.548 -23.353  1.00  0.00     0.131 C 
HETATM    4  C10 UNL     1      -4.070  50.094 -22.788  1.00  0.00     0.013 C 
HETATM    5  C11 UNL     1      -3.780  49.175 -24.016  1.00  0.00     0.023 C 
HETATM    6  C12 UNL     1      -5.294  49.443 -22.057  1.00  0.00    -0.067 C 
HETATM    7  C13 UNL     1      -6.577  49.741 -22.354  1.00  0.00    -0.022 C 
HETATM    8  C14 UNL     1      -7.795  49.109 -21.744  1.00  0.00     0.034 C 
HETATM    9  C15 UNL     1      -7.499  48.182 -20.550  1.00  0.00     0.013 C 
HETATM   10  C16 UNL     1      -8.766  47.433 -20.004  1.00  0.00     0.018 C 
HETATM   11  C17 UNL     1      -9.718  48.468 -19.353  1.00  0.00     0.023 C 
HETATM   12  C18 UNL     1      -9.592  46.663 -21.047  1.00  0.00     0.023 C 
HETATM   13  C19 UNL     1      -8.343  46.434 -18.920  1.00  0.00     0.135 C 
HETATM   14  O2  UNL     1      -9.007  46.249 -17.897  1.00  0.00    -0.297 OA
HETATM   15  C20 UNL     1      -7.133  45.575 -19.192  1.00  0.00     0.080 C 
HETATM   16  C21 UNL     1      -5.942  46.432 -19.584  1.00  0.00     0.017 C 
HETATM   17  C22 UNL     1      -6.204  47.332 -20.819  1.00  0.00    -0.031 C 
HETATM   18  C23 UNL     1      -6.294  46.441 -22.082  1.00  0.00     0.016 C 
HETATM   19  C24 UNL     1      -5.019  48.382 -20.980  1.00  0.00     0.024 C 
HETATM   20  C25 UNL     1      -3.632  47.745 -21.120  1.00  0.00     0.010 C 
HETATM   21  C26 UNL     1      -2.477  48.742 -21.266  1.00  0.00     0.011 C 
HETATM   22  C27 UNL     1      -2.839  50.172 -21.779  1.00  0.00    -0.027 C 
HETATM   23  C28 UNL     1      -3.178  51.054 -20.531  1.00  0.00     0.016 C 
HETATM   24  C29 UNL     1      -1.564  50.797 -22.492  1.00  0.00    -0.005 C 
HETATM   25  C30 UNL     1      -0.311  50.830 -21.595  1.00  0.00     0.011 C 
ENDROOT
BRANCH   1  26
HETATM   26  C6  UNL     1      -0.658  52.874 -23.804  1.00  0.00     0.009 C 
BRANCH  26  27
HETATM   27  C5  UNL     1       0.314  51.912 -24.498  1.00  0.00     0.028 C 
BRANCH  27  28
HETATM   28  C4  UNL     1       0.159  51.983 -25.996  1.00  0.00    -0.025 C 
HETATM   29  C2  UNL     1       1.107  51.777 -26.931  1.00  0.00    -0.091 C 
HETATM   30  C1  UNL     1       0.766  51.843 -28.397  1.00  0.00     0.042 C 
HETATM   31  C3  UNL     1       2.552  51.468 -26.646  1.00  0.00     0.042 C 
ENDBRANCH  27  28
ENDBRANCH  26  27
ENDBRANCH   1  26
BRANCH   3  32
HETATM   32  O1  UNL     1      -5.309  51.546 -24.412  1.00  0.00    -0.394 OA
HETATM   33  H16 UNL     1      -5.502  52.474 -24.630  1.00  0.00     0.210 HD
ENDBRANCH   3  32
TORSDOF 4
ENDMDL
