MODEL 1
REMARK minimizedAffinity -7.41330671
REMARK  4 active torsions:
REMARK  status: ('A' for Active; 'I' for Inactive)
REMARK    1  A    between atoms: O1_2  and  C2_3 
REMARK    2  A    between atoms: C5_10  and  N3_11 
REMARK    3  A    between atoms: N3_11  and  S1_12 
REMARK    4  A    between atoms: S1_12  and  C6_15 
ROOT
HETATM    1  N3  UNL     1      -1.499  52.920 -24.825  1.00  0.00    -0.163 NA
HETATM    2  H6  UNL     1      -1.826  53.883 -24.886  1.00  0.00     0.147 HD
ENDROOT
BRANCH   1   3
HETATM    3  C5  UNL     1      -2.050  52.119 -25.852  1.00  0.00     0.146 A 
HETATM    4  C2  UNL     1      -2.224  52.497 -27.191  1.00  0.00     0.182 A 
HETATM    5  N1  UNL     1      -2.741  51.644 -28.110  1.00  0.00    -0.343 N 
HETATM    6  C3  UNL     1      -3.070  50.418 -27.641  1.00  0.00     0.107 A 
ATOM      7  H1  UNL     1      -2.872  51.908 -29.087  1.00  0.00     0.167 HD
HETATM    8  C4  UNL     1      -2.876  50.046 -26.319  1.00  0.00     0.106 A 
HETATM    9  N2  UNL     1      -2.350  50.883 -25.396  1.00  0.00    -0.351 N 
ATOM     10  H2  UNL     1      -2.192  50.602 -24.428  1.00  0.00     0.166 HD
BRANCH   4  11
HETATM   11  O1  UNL     1      -1.792  53.742 -27.595  1.00  0.00    -0.338 OA
HETATM   12  C1  UNL     1      -0.512  53.719 -28.219  1.00  0.00     0.211 C 
ENDBRANCH   4  11
ENDBRANCH   1   3
BRANCH   1  13
HETATM   13  S1  UNL     1       0.162  52.866 -24.611  1.00  0.00     0.248 S 
HETATM   14  O2  UNL     1       0.696  54.123 -25.090  1.00  0.00    -0.205 OA
HETATM   15  O3  UNL     1       0.670  51.613 -25.129  1.00  0.00    -0.205 OA
BRANCH  13  16
HETATM   16  C6  UNL     1       0.387  52.870 -22.849  1.00  0.00     0.098 A 
HETATM   17  C7  UNL     1       1.067  53.967 -22.287  1.00  0.00     0.027 A 
HETATM   18  C8  UNL     1       1.273  54.038 -20.913  1.00  0.00     0.003 A 
HETATM   19  C9  UNL     1       0.797  53.019 -20.094  1.00  0.00     0.026 A 
HETATM   20  C10 UNL     1       0.108  51.932 -20.647  1.00  0.00     0.057 A 
HETATM   21 CL1  UNL     1      -0.447  50.721 -19.538  1.00  0.00    -0.083 Cl
HETATM   22  C11 UNL     1      -0.112  51.847 -22.033  1.00  0.00     0.078 A 
HETATM   23 CL2  UNL     1      -0.993  50.495 -22.672  1.00  0.00    -0.081 Cl
ENDBRANCH  13  16
ENDBRANCH   1  13
TORSDOF 4
ENDMDL
