MODEL 1
REMARK minimizedAffinity -7.31344604
REMARK CNNscore 0.661990404
REMARK CNNaffinity 7.00692511
REMARK  14 active torsions:
REMARK  status: ('A' for Active; 'I' for Inactive)
REMARK    1  A    between atoms: C3_3  and  O1_4 
REMARK    2  A    between atoms: O1_4  and  C4_5 
REMARK    3  A    between atoms: C5_7  and  C6_8 
REMARK    4  A    between atoms: C6_8  and  O3_9 
REMARK    5  A    between atoms: C7_10  and  O4_11 
REMARK    6  A    between atoms: C9_13  and  O5_14 
REMARK    7  A    between atoms: C10_15  and  O6_16 
REMARK    8  A    between atoms: C20_26  and  C21_27 
REMARK    9  A    between atoms: C21_27  and  O8_29 
REMARK   10  A    between atoms: C22_30  and  O9_31 
REMARK   11  A    between atoms: C24_33  and  C25_34 
REMARK   12  A    between atoms: C25_34  and  C27_36 
REMARK   13  A    between atoms: C27_36  and  C28_37 
REMARK   14  A    between atoms: C28_37  and  C29_38 
ROOT
HETATM    1  C1  UNL     1     -10.358  10.160  14.816  1.00  0.00     0.017 C 
HETATM    2  C2  UNL     1     -11.045   9.181  14.198  1.00  0.00    -0.055 C 
HETATM    3  C3  UNL     1     -10.529   7.755  14.044  1.00  0.00     0.153 C 
HETATM    4  C11 UNL     1     -11.547   6.739  14.583  1.00  0.00     0.037 C 
HETATM    5  C12 UNL     1     -12.981   6.975  14.092  1.00  0.00     0.017 C 
HETATM    6  C13 UNL     1     -13.479   8.438  14.296  1.00  0.00    -0.013 C 
HETATM    7  C14 UNL     1     -13.577   8.745  15.817  1.00  0.00     0.021 C 
HETATM    8  C15 UNL     1     -14.900   8.661  13.714  1.00  0.00    -0.067 C 
HETATM    9  C16 UNL     1     -15.233   9.785  13.022  1.00  0.00    -0.054 C 
HETATM   10  C17 UNL     1     -14.220  10.847  12.655  1.00  0.00     0.036 C 
HETATM   11  C18 UNL     1     -12.947  10.807  13.492  1.00  0.00     0.014 C 
HETATM   12  C19 UNL     1     -12.434   9.366  13.589  1.00  0.00     0.029 C 
HETATM   13  C20 UNL     1     -16.671   9.995  12.518  1.00  0.00     0.102 C 
HETATM   14  C22 UNL     1     -17.258  11.429  12.403  1.00  0.00     0.142 C 
HETATM   15  C23 UNL     1     -18.792  11.229  12.446  1.00  0.00     0.039 C 
HETATM   16  C24 UNL     1     -19.065   9.745  12.840  1.00  0.00     0.001 C 
HETATM   17  C33 UNL     1     -17.713   9.318  13.498  1.00  0.00    -0.016 C 
HETATM   18  C34 UNL     1     -17.661   9.861  14.961  1.00  0.00     0.017 C 
HETATM   19  C35 UNL     1     -17.389   7.819  13.545  1.00  0.00     0.015 C 
HETATM   20  C36 UNL     1     -15.934   7.566  14.002  1.00  0.00     0.036 C 
ENDROOT
BRANCH   3  21
HETATM   21  O1  UNL     1      -9.316   7.620  14.787  1.00  0.00    -0.349 OA
BRANCH  21  22
HETATM   22  C4  UNL     1      -8.730   6.310  14.744  1.00  0.00     0.292 C 
HETATM   23  O2  UNL     1      -8.256   6.057  13.422  1.00  0.00    -0.348 OA
HETATM   24  C5  UNL     1      -7.132   5.180  13.300  1.00  0.00     0.179 C 
HETATM   25  C7  UNL     1      -5.904   5.669  14.112  1.00  0.00     0.183 C 
HETATM   26  C9  UNL     1      -6.303   6.720  15.161  1.00  0.00     0.183 C 
HETATM   27  C10 UNL     1      -7.617   6.313  15.822  1.00  0.00     0.204 C 
BRANCH  24  28
HETATM   28  C6  UNL     1      -7.527   3.733  13.640  1.00  0.00     0.198 C 
BRANCH  28  29
HETATM   29  O3  UNL     1      -8.698   3.350  12.933  1.00  0.00    -0.398 OA
HETATM   30  H8  UNL     1      -8.871   2.408  13.155  1.00  0.00     0.209 HD
ENDBRANCH  28  29
ENDBRANCH  24  28
BRANCH  25  31
HETATM   31  O4  UNL     1      -4.909   6.295  13.272  1.00  0.00    -0.385 OA
HETATM   32  C8  UNL     1      -5.136   7.692  13.117  1.00  0.00     0.202 C 
ENDBRANCH  25  31
BRANCH  26  33
HETATM   33  O5  UNL     1      -5.241   6.814  16.119  1.00  0.00    -0.390 OA
HETATM   34  H14 UNL     1      -4.462   7.124  15.622  1.00  0.00     0.210 HD
ENDBRANCH  26  33
BRANCH  27  35
HETATM   35  O6  UNL     1      -7.972   7.183  16.908  1.00  0.00    -0.388 OA
HETATM   36  H16 UNL     1      -8.517   7.890  16.504  1.00  0.00     0.210 HD
ENDBRANCH  27  35
ENDBRANCH  21  22
ENDBRANCH   3  21
BRANCH  13  37
HETATM   37  C21 UNL     1     -16.657   9.343  11.094  1.00  0.00     0.156 C 
HETATM   38  O7  UNL     1     -17.314   9.674  10.115  1.00  0.00    -0.649 OA
BRANCH  37  39
HETATM   39  O8  UNL     1     -15.804   8.307  10.946  1.00  0.00    -0.775 OA
HETATM   40  H29 UNL     1     -15.942   8.031  10.013  1.00  0.00     0.167 HD
ENDBRANCH  37  39
ENDBRANCH  13  37
BRANCH  14  41
HETATM   41  O9  UNL     1     -16.877  12.281  13.492  1.00  0.00    -0.394 OA
HETATM   42  H31 UNL     1     -17.303  13.146  13.351  1.00  0.00     0.210 HD
ENDBRANCH  14  41
BRANCH  16  43
HETATM   43  C25 UNL     1     -20.393   9.584  13.638  1.00  0.00    -0.013 C 
HETATM   44  C26 UNL     1     -20.695  10.799  14.524  1.00  0.00     0.010 C 
BRANCH  43  45
HETATM   45  C27 UNL     1     -20.378   8.320  14.546  1.00  0.00     0.008 C 
BRANCH  45  46
HETATM   46  C28 UNL     1     -21.730   7.594  14.576  1.00  0.00     0.028 C 
BRANCH  46  47
HETATM   47  C29 UNL     1     -21.565   6.147  14.199  1.00  0.00    -0.025 C 
HETATM   48  C30 UNL     1     -21.500   5.615  12.962  1.00  0.00    -0.091 C 
HETATM   49  C31 UNL     1     -21.565   6.396  11.677  1.00  0.00     0.042 C 
HETATM   50  C32 UNL     1     -21.350   4.128  12.771  1.00  0.00     0.042 C 
ENDBRANCH  46  47
ENDBRANCH  45  46
ENDBRANCH  43  45
ENDBRANCH  16  43
TORSDOF 14
ENDMDL
