MODEL 1
REMARK minimizedAffinity -8.47467995
REMARK CNNscore 0.502192557
REMARK CNNaffinity 7.56768656
REMARK  9 active torsions:
REMARK  status: ('A' for Active; 'I' for Inactive)
REMARK    1  A    between atoms: O1_2  and  C2_3 
REMARK    2  A    between atoms: C2_3  and  C3_4 
REMARK    3  A    between atoms: C3_4  and  C4_5 
REMARK    4  A    between atoms: C4_5  and  O2_6 
REMARK    5  A    between atoms: O2_6  and  C5_7 
REMARK    6  A    between atoms: C23_29  and  O5_30 
REMARK    7  A    between atoms: C34_42  and  O7_43 
REMARK    8  A    between atoms: C35_44  and  O8_46 
REMARK    9  A    between atoms: C42_52  and  O9_53 
ROOT
HETATM    1  C5  UNL     1      -2.288  51.352 -22.381  1.00  0.00     0.122 C 
HETATM    2  C6  UNL     1      -1.919  50.151 -23.285  1.00  0.00     0.033 C 
HETATM    3  C7  UNL     1      -2.724  48.884 -22.971  1.00  0.00     0.014 C 
HETATM    4  C8  UNL     1      -2.553  48.395 -21.486  1.00  0.00    -0.010 C 
HETATM    5  C9  UNL     1      -1.364  47.376 -21.492  1.00  0.00     0.018 C 
HETATM    6  C10 UNL     1      -2.047  49.581 -20.618  1.00  0.00     0.073 C 
HETATM    7  C11 UNL     1      -2.721  50.901 -20.973  1.00  0.00     0.045 C 
HETATM    8  C12 UNL     1      -2.049  49.318 -19.128  1.00  0.00     0.161 C 
HETATM    9  O3  UNL     1      -1.283  49.935 -18.385  1.00  0.00    -0.292 OA
HETATM   10  C13 UNL     1      -3.003  48.332 -18.550  1.00  0.00    -0.005 C 
HETATM   11  C14 UNL     1      -3.919  47.724 -19.326  1.00  0.00    -0.014 C 
HETATM   12  C15 UNL     1      -3.913  47.745 -20.877  1.00  0.00     0.058 C 
HETATM   13  C16 UNL     1      -5.103  48.538 -21.345  1.00  0.00    -0.091 C 
HETATM   14  C17 UNL     1      -6.055  49.158 -21.751  1.00  0.00    -0.104 C 
HETATM   15  C18 UNL     1      -7.187  49.990 -22.176  1.00  0.00     0.115 C 
HETATM   16  C19 UNL     1      -8.019  49.275 -23.202  1.00  0.00     0.090 A 
HETATM   17  C20 UNL     1      -7.474  48.841 -24.533  1.00  0.00     0.120 A 
HETATM   18  N1  UNL     1      -7.845  47.898 -23.529  1.00  0.00    -0.243 NA
HETATM   19  C21 UNL     1      -8.957  47.049 -23.639  1.00  0.00     0.234 C 
HETATM   20  O4  UNL     1      -9.836  47.139 -24.488  1.00  0.00    -0.277 OA
HETATM   21  C22 UNL     1      -8.941  46.044 -22.470  1.00  0.00     0.318 C 
HETATM   22  N2  UNL     1     -10.078  46.308 -21.551  1.00  0.00     0.128 N 
HETATM   23  C23 UNL     1     -10.087  45.421 -20.398  1.00  0.00     0.384 C 
HETATM   24  C24 UNL     1      -8.746  44.673 -20.210  1.00  0.00     0.186 C 
HETATM   25  O6  UNL     1      -8.720  43.783 -19.083  1.00  0.00    -0.373 OA
HETATM   26  C25 UNL     1      -8.200  42.517 -19.525  1.00  0.00     0.158 C 
HETATM   27  C26 UNL     1      -8.639  42.452 -21.009  1.00  0.00     0.021 C 
HETATM   28  C27 UNL     1      -8.047  41.322 -21.832  1.00  0.00     0.013 C 
HETATM   29  C28 UNL     1      -8.328  43.877 -21.462  1.00  0.00     0.036 C 
HETATM   30  C29 UNL     1      -8.838  44.517 -22.798  1.00  0.00     0.005 C 
HETATM   31  C30 UNL     1     -10.180  43.956 -23.344  1.00  0.00     0.012 C 
HETATM   32  C31 UNL     1      -9.867  43.281 -24.678  1.00  0.00     0.001 C 
HETATM   33  C32 UNL     1      -8.645  44.015 -25.190  1.00  0.00     0.001 C 
HETATM   34  C33 UNL     1      -7.821  44.229 -23.933  1.00  0.00     0.012 C 
HETATM   35  C34 UNL     1      -6.683  42.323 -19.162  1.00  0.00     0.181 C 
HETATM   36  C35 UNL     1      -6.065  43.118 -17.951  1.00  0.00     0.087 C 
HETATM   37  C36 UNL     1      -6.893  42.798 -16.691  1.00  0.00     0.049 C 
HETATM   38  C37 UNL     1      -5.863  44.672 -18.127  1.00  0.00     0.034 C 
HETATM   39  C38 UNL     1      -5.480  45.386 -16.785  1.00  0.00     0.016 C 
HETATM   40  C39 UNL     1      -5.127  46.847 -17.147  1.00  0.00     0.026 C 
HETATM   41  C40 UNL     1      -4.020  47.485 -16.319  1.00  0.00     0.013 C 
HETATM   42  C41 UNL     1      -2.813  48.021 -17.089  1.00  0.00     0.043 C 
HETATM   43  C42 UNL     1      -4.968  46.851 -18.675  1.00  0.00     0.095 C 
HETATM   44  C43 UNL     1      -4.807  45.351 -19.100  1.00  0.00    -0.002 C 
HETATM   45  C44 UNL     1      -3.374  44.806 -18.837  1.00  0.00     0.019 C 
HETATM   46  C45 UNL     1      -5.059  45.346 -20.628  1.00  0.00     0.015 C 
HETATM   47  C46 UNL     1      -4.102  46.274 -21.415  1.00  0.00     0.029 C 
HETATM   48  H27 UNL     1     -10.082  47.278 -21.251  1.00  0.00     0.320 HD
ENDROOT
BRANCH   1  49
HETATM   49  O2  UNL     1      -1.128  52.193 -22.386  1.00  0.00    -0.386 OA
BRANCH  49  50
HETATM   50  C4  UNL     1      -0.062  51.884 -21.484  1.00  0.00     0.170 C 
BRANCH  50  51
HETATM   51  C3  UNL     1       1.019  52.961 -21.404  1.00  0.00     0.052 C 
BRANCH  51  52
HETATM   52  C2  UNL     1       1.267  53.412 -19.972  1.00  0.00     0.169 C 
BRANCH  52  53
HETATM   53  O1  UNL     1       0.431  52.651 -19.102  1.00  0.00    -0.396 OA
HETATM   54  C1  UNL     1       0.980  52.541 -17.799  1.00  0.00     0.201 C 
ENDBRANCH  52  53
ENDBRANCH  51  52
ENDBRANCH  50  51
ENDBRANCH  49  50
ENDBRANCH   1  49
BRANCH  43  55
HETATM   55  O9  UNL     1      -6.240  47.354 -19.158  1.00  0.00    -0.384 OA
HETATM   56  H59 UNL     1      -6.952  47.057 -18.577  1.00  0.00     0.211 HD
ENDBRANCH  43  55
BRANCH  36  57
HETATM   57  O8  UNL     1      -4.756  42.546 -17.742  1.00  0.00    -0.387 OA
HETATM   58  H50 UNL     1      -4.862  41.693 -17.279  1.00  0.00     0.210 HD
ENDBRANCH  36  57
BRANCH  35  59
HETATM   59  O7  UNL     1      -5.804  42.445 -20.277  1.00  0.00    -0.390 OA
HETATM   60  H46 UNL     1      -4.900  42.368 -19.907  1.00  0.00     0.210 HD
ENDBRANCH  35  59
BRANCH  23  61
HETATM   61  O5  UNL     1     -10.381  46.213 -19.257  1.00  0.00    -0.366 OA
HETATM   62  H29 UNL     1      -9.647  46.840 -19.154  1.00  0.00     0.212 HD
ENDBRANCH  23  61
TORSDOF 9
ENDMDL
