MODEL 1
REMARK minimizedAffinity -7.16826057
REMARK CNNscore 0.485386223
REMARK CNNaffinity 6.96647644
REMARK  15 active torsions:
REMARK  status: ('A' for Active; 'I' for Inactive)
REMARK    1  A    between atoms: C2_2  and  O2_4 
REMARK    2  A    between atoms: O2_4  and  C3_5 
REMARK    3  A    between atoms: C3_5  and  C4_6 
REMARK    4  A    between atoms: C4_6  and  C5_8 
REMARK    5  A    between atoms: C5_8  and  O4_9 
REMARK    6  A    between atoms: O4_9  and  C6_10 
REMARK    7  A    between atoms: C6_10  and  C7_12 
REMARK    8  A    between atoms: C7_12  and  C8_13 
REMARK    9  A    between atoms: C8_13  and  C9_14 
REMARK       I    between atoms: C9_14  and  N1_16 
REMARK   10  A    between atoms: N1_16  and  C10_17 
REMARK   11  A    between atoms: C10_17  and  C11_18 
REMARK   12  A    between atoms: C11_18  and  C12_19 
REMARK   13  A    between atoms: C12_19  and  C13_20 
REMARK   14  A    between atoms: C13_20  and  C14_21 
REMARK   15  A    between atoms: C14_21  and  O8_23 
ROOT
HETATM    1  C3  UNL     1       0.669  52.173 -10.690  1.00  0.00     0.140 C 
HETATM    2  C15 UNL     1       1.975  51.400 -10.907  1.00  0.00     0.048 C 
HETATM    3  C16 UNL     1       3.033  52.473 -11.163  1.00  0.00     0.009 C 
HETATM    4  C17 UNL     1       2.523  53.786 -10.516  1.00  0.00     0.002 C 
HETATM    5  C18 UNL     1       3.560  54.327  -9.495  1.00  0.00    -0.004 C 
HETATM    6  C19 UNL     1       4.741  54.996 -10.195  1.00  0.00     0.010 C 
HETATM    7  C20 UNL     1       5.832  55.343  -9.188  1.00  0.00     0.035 C 
HETATM    8  C21 UNL     1       5.335  55.880  -7.864  1.00  0.00    -0.068 C 
HETATM    9  C22 UNL     1       6.232  56.034  -6.872  1.00  0.00     0.053 C 
HETATM   10  C23 UNL     1       5.882  56.675  -5.582  1.00  0.00     0.149 C 
HETATM   11  O9  UNL     1       6.744  56.796  -4.714  1.00  0.00    -0.293 OA
HETATM   12  C24 UNL     1       4.489  57.225  -5.410  1.00  0.00     0.084 C 
HETATM   13  C25 UNL     1       3.494  56.399  -6.218  1.00  0.00     0.022 C 
HETATM   14  C26 UNL     1       3.862  56.272  -7.726  1.00  0.00    -0.016 C 
HETATM   15  C27 UNL     1       3.714  57.683  -8.369  1.00  0.00     0.020 C 
HETATM   16  C28 UNL     1       2.883  55.283  -8.492  1.00  0.00     0.002 C 
HETATM   17  C29 UNL     1       1.917  54.434  -7.631  1.00  0.00     0.007 C 
HETATM   18  C30 UNL     1       1.263  53.259  -8.387  1.00  0.00     0.013 C 
HETATM   19  C31 UNL     1       1.113  53.466  -9.914  1.00  0.00    -0.001 C 
HETATM   20  C32 UNL     1       0.078  54.597 -10.130  1.00  0.00     0.019 C 
ENDROOT
BRANCH   1  21
HETATM   21  O2  UNL     1      -0.409  51.458 -10.039  1.00  0.00    -0.301 OA
BRANCH  21  22
HETATM   22  C2  UNL     1      -1.566  52.000  -9.592  1.00  0.00     0.256 C 
HETATM   23  C1  UNL     1      -1.606  51.929  -8.096  1.00  0.00     0.126 C 
HETATM   24  O1  UNL     1      -2.457  52.486 -10.268  1.00  0.00    -0.266 OA
ENDBRANCH  21  22
ENDBRANCH   1  21
BRANCH   1  25
HETATM   25  C4  UNL     1       0.103  52.519 -12.110  1.00  0.00     0.186 C 
HETATM   26  O3  UNL     1      -1.009  53.034 -12.270  1.00  0.00    -0.292 OA
BRANCH  25  27
HETATM   27  C5  UNL     1       0.927  52.146 -13.337  1.00  0.00     0.260 C 
BRANCH  27  28
HETATM   28  O4  UNL     1       0.159  52.303 -14.528  1.00  0.00    -0.314 OA
BRANCH  28  29
HETATM   29  C6  UNL     1      -0.140  51.121 -15.136  1.00  0.00     0.259 C 
HETATM   30  O5  UNL     1      -1.038  50.363 -14.789  1.00  0.00    -0.265 OA
BRANCH  29  31
HETATM   31  C7  UNL     1       0.844  50.846 -16.245  1.00  0.00     0.120 C 
BRANCH  31  32
HETATM   32  C8  UNL     1       0.892  52.006 -17.232  1.00  0.00     0.112 C 
BRANCH  32  33
HETATM   33  C9  UNL     1       0.192  51.663 -18.532  1.00  0.00     0.217 C 
HETATM   34  O6  UNL     1      -0.432  50.624 -18.707  1.00  0.00    -0.274 OA
HETATM   35  N1  UNL     1       0.291  52.668 -19.473  1.00  0.00    -0.361 N 
HETATM   36  H10 UNL     1       1.063  53.317 -19.375  1.00  0.00     0.162 HD
BRANCH  35  37
HETATM   37  C10 UNL     1      -0.289  52.500 -20.792  1.00  0.00     0.122 C 
BRANCH  37  38
HETATM   38  C11 UNL     1       0.797  52.437 -21.862  1.00  0.00     0.020 C 
BRANCH  38  39
HETATM   39  C12 UNL     1       0.206  52.392 -23.272  1.00  0.00     0.012 C 
BRANCH  39  40
HETATM   40  C13 UNL     1       0.877  53.414 -24.188  1.00  0.00     0.110 C 
BRANCH  40  41
HETATM   41  C14 UNL     1      -0.036  54.020 -25.223  1.00  0.00     0.139 C 
HETATM   42  O7  UNL     1       0.195  55.047 -25.841  1.00  0.00    -0.650 OA
BRANCH  41  43
HETATM   43  O8  UNL     1      -1.154  53.317 -25.473  1.00  0.00    -0.776 OA
HETATM   44  H19 UNL     1      -1.611  53.836 -26.167  1.00  0.00     0.167 HD
ENDBRANCH  41  43
ENDBRANCH  40  41
ENDBRANCH  39  40
ENDBRANCH  38  39
ENDBRANCH  37  38
ENDBRANCH  35  37
ENDBRANCH  32  33
ENDBRANCH  31  32
ENDBRANCH  29  31
ENDBRANCH  28  29
ENDBRANCH  27  28
ENDBRANCH  25  27
ENDBRANCH   1  25
TORSDOF 15
ENDMDL
