MODEL 1
REMARK minimizedAffinity -7.96616364
REMARK CNNscore 0.336595803
REMARK CNNaffinity 6.13175392
REMARK  11 active torsions:
REMARK  status: ('A' for Active; 'I' for Inactive)
REMARK    1  A    between atoms: C11_11  and  C13_13 
REMARK    2  A    between atoms: C13_13  and  O2_15 
REMARK    3  A    between atoms: O2_15  and  C14_16 
REMARK    4  A    between atoms: C15_18  and  C16_19 
REMARK    5  A    between atoms: C16_19  and  O4_20 
REMARK    6  A    between atoms: C17_21  and  O5_22 
REMARK    7  A    between atoms: C18_23  and  O6_24 
REMARK    8  A    between atoms: C19_25  and  O7_26 
REMARK    9  A    between atoms: C20_27  and  C21_28 
REMARK   10  A    between atoms: C21_28  and  C22_29 
REMARK   11  A    between atoms: C26_35  and  O10_36 
ROOT
HETATM    1  C1  UNL     1      -9.027   9.629  15.156  1.00  0.00     0.015 C 
HETATM    2  C2  UNL     1      -8.506   8.399  15.314  1.00  0.00    -0.084 C 
HETATM    3  C3  UNL     1      -7.550   8.094  16.435  1.00  0.00     0.034 C 
HETATM    4  C4  UNL     1      -6.218   7.506  15.944  1.00  0.00     0.011 C 
HETATM    5  C5  UNL     1      -6.267   6.942  14.503  1.00  0.00     0.012 C 
HETATM    6  C6  UNL     1      -7.618   6.188  14.246  1.00  0.00    -0.032 C 
HETATM    7  C7  UNL     1      -7.853   5.038  15.249  1.00  0.00     0.016 C 
HETATM    8  C8  UNL     1      -7.569   5.607  12.809  1.00  0.00     0.010 C 
HETATM    9  C9  UNL     1      -6.417   4.644  12.534  1.00  0.00     0.002 C 
HETATM   10  C10 UNL     1      -5.203   4.795  13.446  1.00  0.00     0.020 C 
HETATM   11  C11 UNL     1      -4.957   6.220  13.997  1.00  0.00     0.049 C 
HETATM   12  C12 UNL     1      -4.365   7.052  12.825  1.00  0.00     0.026 C 
HETATM   13  C20 UNL     1      -8.781   7.275  14.310  1.00  0.00     0.025 C 
ENDROOT
BRANCH  11  14
HETATM   14  C13 UNL     1      -3.864   6.163  15.083  1.00  0.00     0.270 C 
HETATM   15  O1  UNL     1      -4.053   5.778  16.230  1.00  0.00    -0.264 OA
BRANCH  14  16
HETATM   16  O2  UNL     1      -2.660   6.546  14.586  1.00  0.00    -0.286 OA
BRANCH  16  17
HETATM   17  C14 UNL     1      -1.619   5.560  14.578  1.00  0.00     0.301 C 
HETATM   18  O3  UNL     1      -1.619   4.856  13.326  1.00  0.00    -0.348 OA
HETATM   19  C15 UNL     1      -0.990   5.519  12.218  1.00  0.00     0.179 C 
HETATM   20  C17 UNL     1      -0.711   7.013  12.458  1.00  0.00     0.180 C 
HETATM   21  C18 UNL     1       0.116   7.228  13.729  1.00  0.00     0.183 C 
HETATM   22  C19 UNL     1      -0.263   6.245  14.849  1.00  0.00     0.205 C 
BRANCH  19  23
HETATM   23  C16 UNL     1       0.256   4.705  11.824  1.00  0.00     0.198 C 
BRANCH  23  24
HETATM   24  O4  UNL     1      -0.077   3.643  10.938  1.00  0.00    -0.398 OA
HETATM   25  H24 UNL     1       0.727   3.097  10.839  1.00  0.00     0.209 HD
ENDBRANCH  23  24
ENDBRANCH  19  23
BRANCH  20  26
HETATM   26  O5  UNL     1      -0.069   7.686  11.371  1.00  0.00    -0.390 OA
HETATM   27  H26 UNL     1       0.442   7.010  10.869  1.00  0.00     0.210 HD
ENDBRANCH  20  26
BRANCH  21  28
HETATM   28  O6  UNL     1      -0.059   8.585  14.187  1.00  0.00    -0.390 OA
HETATM   29  H28 UNL     1       0.048   9.141  13.388  1.00  0.00     0.210 HD
ENDBRANCH  21  28
BRANCH  22  30
HETATM   30  O7  UNL     1      -0.233   6.902  16.121  1.00  0.00    -0.388 OA
HETATM   31  H30 UNL     1      -0.277   7.860  15.909  1.00  0.00     0.210 HD
ENDBRANCH  22  30
ENDBRANCH  16  17
ENDBRANCH  14  16
ENDBRANCH  11  14
BRANCH  13  32
HETATM   32  C21 UNL     1     -10.239   6.734  14.387  1.00  0.00     0.037 C 
BRANCH  32  33
HETATM   33  C22 UNL     1     -11.294   7.516  13.648  1.00  0.00    -0.010 C 
HETATM   34  C23 UNL     1     -12.365   8.128  14.180  1.00  0.00     0.044 C 
HETATM   35  C24 UNL     1     -13.343   8.831  13.312  1.00  0.00     0.291 C 
HETATM   36  C26 UNL     1     -12.855   8.258  15.574  1.00  0.00     0.181 C 
HETATM   37  O8  UNL     1     -13.378   8.805  12.095  1.00  0.00    -0.260 OA
HETATM   38  O9  UNL     1     -14.228   9.494  14.105  1.00  0.00    -0.315 OA
HETATM   39  C25 UNL     1     -13.762   9.464  15.452  1.00  0.00     0.215 C 
BRANCH  36  40
HETATM   40  O10 UNL     1     -11.820   8.488  16.514  1.00  0.00    -0.389 OA
HETATM   41  H38 UNL     1     -12.219   8.469  17.400  1.00  0.00     0.210 HD
ENDBRANCH  36  40
ENDBRANCH  32  33
ENDBRANCH  13  32
TORSDOF 11
ENDMDL
