MODEL 1
REMARK minimizedAffinity -9.44765663
REMARK CNNscore 0.516200662
REMARK CNNaffinity 7.66062689
REMARK  12 active torsions:
REMARK  status: ('A' for Active; 'I' for Inactive)
REMARK    1  A    between atoms: C3_3  and  O1_4 
REMARK    2  A    between atoms: N1_14  and  O2_16 
REMARK    3  A    between atoms: O2_16  and  C13_17 
REMARK    4  A    between atoms: C13_17  and  C14_18 
REMARK       I    between atoms: C14_18  and  N2_20 
REMARK    5  A    between atoms: N2_20  and  C15_21 
REMARK    6  A    between atoms: C15_21  and  C16_22 
REMARK    7  A    between atoms: C15_21  and  C23_33 
REMARK       I    between atoms: C16_22  and  N3_24 
REMARK    8  A    between atoms: N3_24  and  C17_25 
REMARK    9  A    between atoms: C17_25  and  C18_26 
REMARK   10  A    between atoms: C17_25  and  C19_29 
REMARK   11  A    between atoms: C18_26  and  O6_28 
REMARK   12  A    between atoms: C19_29  and  C21_31 
ROOT
HETATM    1  C1  UNL     1       0.234  54.968  -8.473  1.00  0.00     0.015 C 
HETATM    2  C2  UNL     1       0.620  54.269  -9.366  1.00  0.00    -0.078 C 
HETATM    3  C3  UNL     1       1.131  53.386 -10.437  1.00  0.00     0.128 C 
HETATM    4  C4  UNL     1       2.442  52.700  -9.996  1.00  0.00     0.052 C 
HETATM    5  C5  UNL     1       2.240  51.191 -10.163  1.00  0.00     0.010 C 
HETATM    6  C6  UNL     1       1.107  51.036 -11.186  1.00  0.00     0.002 C 
HETATM    7  C7  UNL     1       1.572  50.862 -12.664  1.00  0.00    -0.004 C 
HETATM    8  C8  UNL     1       2.809  51.678 -13.088  1.00  0.00     0.010 C 
HETATM    9  C9  UNL     1       3.251  51.353 -14.511  1.00  0.00     0.035 C 
HETATM   10  C10 UNL     1       2.125  51.523 -15.496  1.00  0.00    -0.069 C 
HETATM   11  C11 UNL     1       2.304  52.282 -16.592  1.00  0.00     0.030 C 
HETATM   12  C12 UNL     1       1.268  52.359 -17.655  1.00  0.00     0.032 C 
HETATM   13  N1  UNL     1       1.376  53.310 -18.536  1.00  0.00    -0.271 N 
ATOM     14  H1  UNL     1       2.102  54.025 -18.509  1.00  0.00     0.194 HD
HETATM   15  C26 UNL     1       0.180  51.307 -17.625  1.00  0.00     0.060 C 
HETATM   16  C27 UNL     1      -0.304  51.189 -16.180  1.00  0.00     0.020 C 
HETATM   17  C28 UNL     1       0.825  50.781 -15.176  1.00  0.00    -0.016 C 
HETATM   18  C29 UNL     1       1.065  49.256 -15.367  1.00  0.00     0.020 C 
HETATM   19  C30 UNL     1       0.393  51.046 -13.667  1.00  0.00     0.002 C 
HETATM   20  C31 UNL     1      -0.251  52.427 -13.411  1.00  0.00     0.007 C 
HETATM   21  C32 UNL     1      -0.810  52.553 -11.992  1.00  0.00     0.014 C 
HETATM   22  C33 UNL     1       0.158  52.221 -10.841  1.00  0.00     0.003 C 
HETATM   23  C34 UNL     1      -0.725  51.787  -9.627  1.00  0.00     0.020 C 
ENDROOT
BRANCH   3  24
HETATM   24  O1  UNL     1       1.418  54.211 -11.561  1.00  0.00    -0.377 OA
HETATM   25  H2  UNL     1       1.805  55.037 -11.226  1.00  0.00     0.211 HD
ENDBRANCH   3  24
BRANCH  13  26
HETATM   26  O2  UNL     1       0.386  53.245 -19.525  1.00  0.00    -0.271 OA
BRANCH  26  27
HETATM   27  C13 UNL     1       0.979  53.571 -20.778  1.00  0.00     0.303 C 
BRANCH  27  28
HETATM   28  C14 UNL     1       0.600  52.551 -21.851  1.00  0.00     0.244 C 
HETATM   29  O3  UNL     1       0.350  51.373 -21.605  1.00  0.00    -0.271 OA
HETATM   30  N2  UNL     1       0.611  53.046 -23.145  1.00  0.00    -0.346 N 
HETATM   31  H16 UNL     1       0.349  54.021 -23.244  1.00  0.00     0.163 HD
BRANCH  30  32
HETATM   32  C15 UNL     1       0.229  52.177 -24.263  1.00  0.00     0.180 C 
BRANCH  32  33
HETATM   33  C16 UNL     1      -1.318  52.187 -24.363  1.00  0.00     0.241 C 
HETATM   34  O4  UNL     1      -1.932  53.152 -24.820  1.00  0.00    -0.271 OA
HETATM   35  N3  UNL     1      -1.935  51.033 -23.941  1.00  0.00    -0.344 N 
HETATM   36  H18 UNL     1      -1.396  50.386 -23.367  1.00  0.00     0.163 HD
BRANCH  35  37
HETATM   37  C17 UNL     1      -3.393  50.970 -23.762  1.00  0.00     0.186 C 
BRANCH  37  38
HETATM   38  C18 UNL     1      -3.698  51.463 -22.343  1.00  0.00     0.163 C 
HETATM   39  O5  UNL     1      -2.938  51.390 -21.385  1.00  0.00    -0.648 OA
BRANCH  38  40
HETATM   40  O6  UNL     1      -4.911  52.026 -22.206  1.00  0.00    -0.775 OA
HETATM   41  H20 UNL     1      -4.940  52.304 -21.265  1.00  0.00     0.167 HD
ENDBRANCH  38  40
ENDBRANCH  37  38
BRANCH  37  42
HETATM   42  C19 UNL     1      -3.958  49.566 -24.083  1.00  0.00     0.014 C 
HETATM   43  C20 UNL     1      -3.042  48.475 -23.501  1.00  0.00     0.012 C 
BRANCH  42  44
HETATM   44  C21 UNL     1      -4.199  49.270 -25.582  1.00  0.00     0.002 C 
HETATM   45  C22 UNL     1      -3.117  48.436 -26.247  1.00  0.00     0.005 C 
ENDBRANCH  42  44
ENDBRANCH  37  42
ENDBRANCH  35  37
ENDBRANCH  32  33
BRANCH  32  46
HETATM   46  C23 UNL     1       0.944  52.621 -25.562  1.00  0.00     0.009 C 
HETATM   47  C24 UNL     1       1.822  51.507 -26.137  1.00  0.00     0.012 C 
HETATM   48  C25 UNL     1      -0.002  53.153 -26.642  1.00  0.00     0.012 C 
ENDBRANCH  32  46
ENDBRANCH  30  32
ENDBRANCH  27  28
ENDBRANCH  26  27
ENDBRANCH  13  26
TORSDOF 12
ENDMDL
