MODEL 1
REMARK minimizedAffinity -7.78006124
REMARK CNNscore 0.248390019
REMARK CNNaffinity 6.22053909
REMARK  9 active torsions:
REMARK  status: ('A' for Active; 'I' for Inactive)
REMARK    1  A    between atoms: C12_14  and  C13_15 
REMARK    2  A    between atoms: C13_15  and  C15_17 
REMARK    3  A    between atoms: C15_17  and  C16_18 
REMARK    4  A    between atoms: C16_18  and  C17_19 
REMARK    5  A    between atoms: C18_20  and  C20_22 
REMARK    6  A    between atoms: C26_29  and  C27_30 
REMARK    7  A    between atoms: C27_30  and  C28_31 
REMARK    8  A    between atoms: C28_31  and  C29_32 
REMARK    9  A    between atoms: C29_32  and  O5_34 
ROOT
HETATM    1  C1  UNL     1       0.942  54.194 -23.787  1.00  0.00     0.025 C 
HETATM    2  C2  UNL     1       0.740  53.231 -22.878  1.00  0.00     0.015 C 
HETATM    3  C3  UNL     1       1.136  53.408 -21.465  1.00  0.00     0.289 C 
HETATM    4  O1  UNL     1       1.766  54.341 -21.001  1.00  0.00    -0.260 OA
HETATM    5  O2  UNL     1       0.690  52.331 -20.769  1.00  0.00    -0.311 OA
HETATM    6  C4  UNL     1      -0.176  51.520 -21.586  1.00  0.00     0.142 C 
HETATM    7  C5  UNL     1      -1.610  51.757 -21.129  1.00  0.00     0.039 C 
HETATM    8  C6  UNL     1      -2.702  51.135 -22.013  1.00  0.00     0.006 C 
HETATM    9  C7  UNL     1      -2.449  51.330 -23.527  1.00  0.00    -0.027 A 
HETATM   10  C8  UNL     1      -3.479  50.642 -24.445  1.00  0.00     0.011 C 
HETATM   11  C9  UNL     1      -3.927  49.236 -24.012  1.00  0.00     0.011 C 
HETATM   12  C10 UNL     1      -4.330  49.206 -22.530  1.00  0.00    -0.032 C 
HETATM   13  C11 UNL     1      -5.559  50.139 -22.342  1.00  0.00     0.016 C 
HETATM   14  C12 UNL     1      -4.648  47.809 -21.900  1.00  0.00    -0.002 C 
HETATM   15  C21 UNL     1      -4.285  48.006 -20.395  1.00  0.00     0.006 C 
HETATM   16  C22 UNL     1      -3.517  49.335 -20.277  1.00  0.00     0.011 C 
HETATM   17  C23 UNL     1      -3.047  49.643 -21.707  1.00  0.00    -0.032 C 
HETATM   18  C24 UNL     1      -1.794  48.748 -21.973  1.00  0.00     0.016 C 
HETATM   19  C25 UNL     1      -2.132  52.735 -23.981  1.00  0.00     0.022 A 
HETATM   20  C26 UNL     1      -1.019  51.702 -24.032  1.00  0.00    -0.021 A 
HETATM   21  C30 UNL     1       0.135  51.874 -23.033  1.00  0.00     0.063 C 
ENDROOT
BRANCH  14  22
HETATM   22  C13 UNL     1      -5.993  47.047 -22.115  1.00  0.00    -0.014 C 
HETATM   23  C14 UNL     1      -6.639  47.146 -23.505  1.00  0.00     0.010 C 
BRANCH  22  24
HETATM   24  C15 UNL     1      -5.965  45.560 -21.696  1.00  0.00     0.008 C 
BRANCH  24  25
HETATM   25  C16 UNL     1      -6.763  45.250 -20.427  1.00  0.00     0.028 C 
BRANCH  25  26
HETATM   26  C17 UNL     1      -8.116  44.686 -20.767  1.00  0.00    -0.017 C 
HETATM   27  C18 UNL     1      -8.409  43.401 -21.043  1.00  0.00    -0.028 C 
HETATM   28  C19 UNL     1      -7.472  42.233 -21.042  1.00  0.00     0.051 C 
BRANCH  27  29
HETATM   29  C20 UNL     1      -9.829  43.086 -21.374  1.00  0.00     0.265 C 
HETATM   30  O3  UNL     1     -10.743  43.879 -21.187  1.00  0.00    -0.302 OA
ENDBRANCH  27  29
ENDBRANCH  25  26
ENDBRANCH  24  25
ENDBRANCH  22  24
ENDBRANCH  14  22
BRANCH  20  31
HETATM   31  C27 UNL     1      -0.550  51.123 -25.376  1.00  0.00     0.021 C 
BRANCH  31  32
HETATM   32  C28 UNL     1      -0.458  52.117 -26.527  1.00  0.00     0.111 C 
BRANCH  32  33
HETATM   33  C29 UNL     1      -1.655  51.983 -27.422  1.00  0.00     0.139 C 
HETATM   34  O4  UNL     1      -2.173  50.939 -27.778  1.00  0.00    -0.650 OA
BRANCH  33  35
HETATM   35  O5  UNL     1      -2.161  53.171 -27.800  1.00  0.00    -0.776 OA
HETATM   36  H41 UNL     1      -2.926  52.936 -28.367  1.00  0.00     0.167 HD
ENDBRANCH  33  35
ENDBRANCH  32  33
ENDBRANCH  31  32
ENDBRANCH  20  31
TORSDOF 9
ENDMDL
