MODEL 1
REMARK minimizedAffinity -7.01236391
REMARK CNNscore 0.515739739
REMARK CNNaffinity 4.15699816
REMARK  12 active torsions:
REMARK  status: ('A' for Active; 'I' for Inactive)
REMARK    1  A    between atoms: C3_3  and  O1_4 
REMARK    2  A    between atoms: O1_4  and  C4_5 
REMARK    3  A    between atoms: C5_7  and  C6_8 
REMARK    4  A    between atoms: C6_8  and  O3_9 
REMARK    5  A    between atoms: C7_10  and  O4_11 
REMARK    6  A    between atoms: C8_12  and  O5_13 
REMARK    7  A    between atoms: C9_14  and  O6_15 
REMARK    8  A    between atoms: C10_16  and  O7_17 
REMARK    9  A    between atoms: C15_22  and  O8_23 
REMARK   10  A    between atoms: C15_22  and  C16_24 
REMARK   11  A    between atoms: C17_25  and  C18_26 
REMARK   12  A    between atoms: C18_26  and  O9_28 
ROOT
HETATM    1  C1  UNL     1       5.625  69.370 -35.016  1.00  0.00     0.016 C 
HETATM    2  C2  UNL     1       6.031  68.385 -36.123  1.00  0.00     0.052 C 
HETATM    3  C3  UNL     1       5.272  68.652 -37.435  1.00  0.00     0.160 C 
HETATM    4  C10 UNL     1       5.906  67.827 -38.597  1.00  0.00     0.148 C 
HETATM    5  C11 UNL     1       6.733  66.614 -38.146  1.00  0.00     0.046 C 
HETATM    6  C12 UNL     1       6.156  65.875 -36.915  1.00  0.00    -0.010 C 
HETATM    7  C13 UNL     1       7.078  64.659 -36.630  1.00  0.00     0.018 C 
HETATM    8  C14 UNL     1       4.773  65.280 -37.284  1.00  0.00     0.018 C 
HETATM    9  C15 UNL     1       6.105  66.874 -35.680  1.00  0.00     0.088 C 
ENDROOT
BRANCH   3  10
HETATM   10  O1  UNL     1       3.869  68.432 -37.254  1.00  0.00    -0.350 OA
BRANCH  10  11
HETATM   11  C4  UNL     1       3.497  67.053 -37.405  1.00  0.00     0.292 C 
HETATM   12  O2  UNL     1       3.114  66.839 -38.774  1.00  0.00    -0.348 OA
HETATM   13  C5  UNL     1       1.705  66.883 -39.043  1.00  0.00     0.179 C 
HETATM   14  C7  UNL     1       0.979  67.849 -38.099  1.00  0.00     0.180 C 
HETATM   15  C8  UNL     1       1.029  67.240 -36.696  1.00  0.00     0.183 C 
HETATM   16  C9  UNL     1       2.421  66.688 -36.350  1.00  0.00     0.204 C 
BRANCH  13  17
HETATM   17  C6  UNL     1       1.537  67.258 -40.517  1.00  0.00     0.198 C 
BRANCH  17  18
HETATM   18  O3  UNL     1       1.549  68.676 -40.672  1.00  0.00    -0.398 OA
HETATM   19  H10 UNL     1       2.402  68.964 -40.291  1.00  0.00     0.209 HD
ENDBRANCH  17  18
ENDBRANCH  13  17
BRANCH  14  20
HETATM   20  O4  UNL     1      -0.395  68.060 -38.448  1.00  0.00    -0.390 OA
HETATM   21  H12 UNL     1      -0.391  68.624 -39.246  1.00  0.00     0.210 HD
ENDBRANCH  14  20
BRANCH  15  22
HETATM   22  O5  UNL     1       0.601  68.210 -35.729  1.00  0.00    -0.390 OA
HETATM   23  H14 UNL     1      -0.249  68.550 -36.072  1.00  0.00     0.210 HD
ENDBRANCH  15  22
BRANCH  16  24
HETATM   24  O6  UNL     1       2.319  65.249 -36.254  1.00  0.00    -0.388 OA
HETATM   25  H16 UNL     1       1.887  65.066 -35.399  1.00  0.00     0.210 HD
ENDBRANCH  16  24
ENDBRANCH  10  11
ENDBRANCH   3  10
BRANCH   4  26
HETATM   26  O7  UNL     1       4.934  67.426 -39.565  1.00  0.00    -0.393 OA
HETATM   27  H18 UNL     1       5.397  66.925 -40.260  1.00  0.00     0.210 HD
ENDBRANCH   4  26
BRANCH   9  28
HETATM   28  O8  UNL     1       7.412  66.821 -35.040  1.00  0.00    -0.385 OA
HETATM   29  H27 UNL     1       7.310  67.192 -34.146  1.00  0.00     0.211 HD
ENDBRANCH   9  28
BRANCH   9  30
HETATM   30  C16 UNL     1       5.176  66.349 -34.600  1.00  0.00     0.010 C 
HETATM   31  C17 UNL     1       5.420  65.422 -33.658  1.00  0.00     0.003 C 
BRANCH  31  32
HETATM   32  C18 UNL     1       4.463  64.948 -32.598  1.00  0.00     0.136 C 
HETATM   33  C19 UNL     1       4.373  63.428 -32.580  1.00  0.00     0.043 C 
BRANCH  32  34
HETATM   34  O9  UNL     1       4.868  65.412 -31.317  1.00  0.00    -0.392 OA
HETATM   35  H34 UNL     1       4.240  65.054 -30.669  1.00  0.00     0.210 HD
ENDBRANCH  32  34
ENDBRANCH  31  32
ENDBRANCH   9  30
TORSDOF 12
ENDMDL
