MODEL 1
REMARK minimizedAffinity -9.79774284
REMARK  4 active torsions:
REMARK  status: ('A' for Active; 'I' for Inactive)
REMARK    1  A    between atoms: C2_2  and  C4_4 
REMARK    2  A    between atoms: C4_4  and  C5_5 
REMARK    3  A    between atoms: C5_5  and  O1_6 
REMARK    4  A    between atoms: C8_9  and  C9_10 
ROOT
HETATM    1  C9  UNL     1      -1.438  48.807 -18.268  1.00  0.00     0.001 C 
HETATM    2  C10 UNL     1      -2.544  47.752 -18.546  1.00  0.00     0.007 C 
HETATM    3  C11 UNL     1      -2.979  47.922 -20.012  1.00  0.00     0.011 C 
HETATM    4  C12 UNL     1      -1.875  48.778 -20.659  1.00  0.00    -0.032 C 
HETATM    5  C13 UNL     1      -0.720  47.798 -21.037  1.00  0.00     0.016 C 
HETATM    6  C14 UNL     1      -2.334  49.577 -21.908  1.00  0.00     0.004 C 
HETATM    7  C15 UNL     1      -2.614  48.711 -23.143  1.00  0.00     0.007 C 
HETATM    8  C16 UNL     1      -3.120  49.576 -24.295  1.00  0.00     0.007 C 
HETATM    9  C17 UNL     1      -1.990  50.479 -24.807  1.00  0.00     0.010 C 
HETATM   10  C18 UNL     1      -2.378  51.399 -26.009  1.00  0.00     0.018 C 
HETATM   11  C19 UNL     1      -3.568  52.327 -25.714  1.00  0.00     0.023 C 
HETATM   12  C20 UNL     1      -2.707  50.549 -27.249  1.00  0.00     0.023 C 
HETATM   13  C21 UNL     1      -1.176  52.283 -26.376  1.00  0.00     0.135 C 
HETATM   14  O2  UNL     1      -1.246  53.155 -27.245  1.00  0.00    -0.297 OA
HETATM   15  C22 UNL     1       0.137  51.986 -25.695  1.00  0.00     0.080 C 
HETATM   16  C23 UNL     1      -0.028  51.992 -24.183  1.00  0.00     0.018 C 
HETATM   17  C24 UNL     1      -1.293  51.278 -23.697  1.00  0.00    -0.026 A 
HETATM   18  C25 UNL     1      -2.098  52.028 -22.663  1.00  0.00     0.021 A 
HETATM   19  C26 UNL     1      -1.386  50.760 -22.232  1.00  0.00    -0.027 A 
HETATM   20  C27 UNL     1      -0.143  50.921 -21.351  1.00  0.00     0.011 C 
HETATM   21  C28 UNL     1      -0.256  50.533 -19.864  1.00  0.00     0.011 C 
HETATM   22  C29 UNL     1      -1.540  49.779 -19.489  1.00  0.00    -0.032 C 
HETATM   23  C30 UNL     1      -2.645  50.837 -19.225  1.00  0.00     0.016 C 
ENDROOT
BRANCH   1  24
HETATM   24  C8  UNL     1      -1.386  49.283 -16.789  1.00  0.00     0.014 C 
HETATM   25  C7  UNL     1      -0.079  48.901 -16.087  1.00  0.00     0.010 C 
HETATM   26  C6  UNL     1      -0.143  49.238 -14.597  1.00  0.00     0.041 C 
HETATM   27  C4  UNL     1      -0.594  50.691 -14.311  1.00  0.00     0.085 C 
HETATM   28  O3  UNL     1      -1.786  50.983 -15.080  1.00  0.00    -0.377 OA
HETATM   29  C31 UNL     1      -1.709  50.751 -16.490  1.00  0.00     0.174 C 
BRANCH  27  30
HETATM   30  C2  UNL     1      -1.035  50.807 -12.804  1.00  0.00     0.014 C 
HETATM   31  C1  UNL     1      -0.833  49.526 -11.980  1.00  0.00     0.012 C 
HETATM   32  C3  UNL     1      -2.472  51.304 -12.603  1.00  0.00     0.012 C 
ENDBRANCH  27  30
BRANCH  27  33
HETATM   33  C5  UNL     1       0.527  51.697 -14.693  1.00  0.00     0.202 C 
BRANCH  33  34
HETATM   34  O1  UNL     1       0.488  52.867 -13.877  1.00  0.00    -0.398 OA
HETATM   35  H10 UNL     1      -0.455  53.016 -13.671  1.00  0.00     0.209 HD
ENDBRANCH  33  34
ENDBRANCH  27  33
ENDBRANCH   1  24
TORSDOF 4
ENDMDL
