MODEL 1
REMARK minimizedAffinity -8.26359272
REMARK CNNscore 0.543665051
REMARK CNNaffinity 6.3219738
REMARK  7 active torsions:
REMARK  status: ('A' for Active; 'I' for Inactive)
REMARK    1  A    between atoms: C2_2  and  C4_4 
REMARK    2  A    between atoms: C7_7  and  O1_9 
REMARK    3  A    between atoms: C9_10  and  C10_11 
REMARK    4  A    between atoms: C11_12  and  C12_13 
REMARK    5  A    between atoms: C14_15  and  C15_16 
REMARK    6  A    between atoms: C24_26  and  C26_28 
REMARK    7  A    between atoms: C29_32  and  O4_34 
ROOT
HETATM    1  C15 UNL     1      -7.077  47.428 -27.866  1.00  0.00     0.149 C 
HETATM    2  C16 UNL     1      -8.558  47.256 -27.574  1.00  0.00     0.054 C 
HETATM    3  C17 UNL     1      -9.100  46.270 -28.652  1.00  0.00     0.050 C 
HETATM    4  C18 UNL     1      -7.754  45.614 -29.139  1.00  0.00     0.272 C 
HETATM    5  O2  UNL     1      -7.599  44.211 -29.099  1.00  0.00    -0.360 OA
HETATM    6  C19 UNL     1      -8.410  43.523 -30.036  1.00  0.00     0.171 C 
HETATM    7  C20 UNL     1      -9.774  43.239 -29.435  1.00  0.00     0.027 C 
HETATM    8  C21 UNL     1      -9.924  43.794 -28.024  1.00  0.00     0.012 C 
HETATM    9  C22 UNL     1     -10.214  45.303 -27.952  1.00  0.00     0.032 C 
HETATM   10  C23 UNL     1     -11.684  45.761 -28.238  1.00  0.00    -0.066 C 
HETATM   11  C24 UNL     1     -12.815  45.024 -28.426  1.00  0.00    -0.021 C 
HETATM   12  C25 UNL     1     -13.005  43.542 -28.264  1.00  0.00     0.052 C 
HETATM   13  C27 UNL     1     -11.736  47.273 -28.196  1.00  0.00     0.038 C 
HETATM   14  C28 UNL     1     -11.037  47.863 -29.409  1.00  0.00     0.042 C 
HETATM   15  C29 UNL     1      -9.764  47.090 -29.845  1.00  0.00     0.067 C 
HETATM   16  C30 UNL     1      -8.868  48.118 -30.567  1.00  0.00     0.047 C 
HETATM   17  O5  UNL     1      -6.685  46.157 -28.342  1.00  0.00    -0.351 OA
ENDROOT
BRANCH   1  18
HETATM   18  C14 UNL     1      -6.307  47.865 -26.646  1.00  0.00     0.011 C 
HETATM   19  C12 UNL     1      -5.006  48.201 -26.510  1.00  0.00    -0.064 C 
HETATM   20  C13 UNL     1      -4.040  48.303 -27.664  1.00  0.00     0.048 C 
BRANCH  19  21
HETATM   21  C11 UNL     1      -4.515  48.521 -25.169  1.00  0.00     0.003 C 
HETATM   22  C10 UNL     1      -5.010  49.449 -24.333  1.00  0.00    -0.018 C 
BRANCH  22  23
HETATM   23  C9  UNL     1      -4.481  49.793 -22.953  1.00  0.00     0.050 C 
HETATM   24  C4  UNL     1      -3.058  49.240 -22.617  1.00  0.00     0.024 C 
HETATM   25  C5  UNL     1      -2.417  50.326 -21.741  1.00  0.00     0.013 C 
HETATM   26  C6  UNL     1      -2.932  51.614 -22.370  1.00  0.00     0.039 C 
HETATM   27  C7  UNL     1      -4.417  51.320 -22.614  1.00  0.00     0.062 C 
HETATM   28  C8  UNL     1      -5.018  52.287 -23.631  1.00  0.00     0.046 C 
BRANCH  24  29
HETATM   29  C2  UNL     1      -3.053  47.843 -22.014  1.00  0.00    -0.088 C 
HETATM   30  C1  UNL     1      -1.903  47.172 -21.825  1.00  0.00     0.014 C 
HETATM   31  C3  UNL     1      -4.372  47.216 -21.641  1.00  0.00     0.043 C 
ENDBRANCH  24  29
BRANCH  27  32
HETATM   32  O1  UNL     1      -5.107  51.538 -21.371  1.00  0.00    -0.390 OA
HETATM   33  H14 UNL     1      -6.049  51.345 -21.523  1.00  0.00     0.210 HD
ENDBRANCH  27  32
ENDBRANCH  22  23
ENDBRANCH  19  21
ENDBRANCH   1  18
BRANCH  15  34
HETATM   34  O4  UNL     1     -10.147  46.132 -30.847  1.00  0.00    -0.389 OA
HETATM   35  H44 UNL     1     -10.565  46.604 -31.588  1.00  0.00     0.210 HD
ENDBRANCH  15  34
BRANCH  11  36
HETATM   36  C26 UNL     1     -14.094  45.711 -28.825  1.00  0.00     0.265 C 
HETATM   37  O3  UNL     1     -15.211  45.276 -28.571  1.00  0.00    -0.302 OA
ENDBRANCH  11  36
TORSDOF 7
ENDMDL
