MODEL 1
REMARK minimizedAffinity -9.92727089
REMARK  4 active torsions:
REMARK  status: ('A' for Active; 'I' for Inactive)
REMARK    1  A    between atoms: C2_2  and  C4_4 
REMARK    2  A    between atoms: C4_4  and  C5_5 
REMARK    3  A    between atoms: C5_5  and  O1_6 
REMARK    4  A    between atoms: C8_9  and  C9_10 
ROOT
HETATM    1  C9  UNL     1      -0.762  49.393 -18.200  1.00  0.00     0.001 C 
HETATM    2  C10 UNL     1      -1.987  48.439 -18.203  1.00  0.00     0.007 C 
HETATM    3  C11 UNL     1      -2.597  48.492 -19.617  1.00  0.00     0.011 C 
HETATM    4  C12 UNL     1      -1.526  49.170 -20.494  1.00  0.00    -0.032 C 
HETATM    5  C13 UNL     1      -0.523  48.046 -20.906  1.00  0.00     0.016 C 
HETATM    6  C14 UNL     1      -2.079  49.888 -21.754  1.00  0.00     0.004 C 
HETATM    7  C15 UNL     1      -2.592  48.939 -22.848  1.00  0.00     0.007 C 
HETATM    8  C16 UNL     1      -3.198  49.740 -23.999  1.00  0.00     0.007 C 
HETATM    9  C17 UNL     1      -2.098  50.501 -24.752  1.00  0.00     0.010 C 
HETATM   10  C18 UNL     1      -2.601  51.400 -25.931  1.00  0.00     0.018 C 
HETATM   11  C19 UNL     1      -3.808  52.281 -25.568  1.00  0.00     0.023 C 
HETATM   12  C20 UNL     1      -2.984  50.521 -27.136  1.00  0.00     0.023 C 
HETATM   13  C21 UNL     1      -1.448  52.310 -26.390  1.00  0.00     0.135 C 
HETATM   14  O2  UNL     1      -1.631  53.327 -27.062  1.00  0.00    -0.297 OA
HETATM   15  C22 UNL     1      -0.052  51.848 -26.060  1.00  0.00     0.080 C 
HETATM   16  C23 UNL     1       0.124  51.729 -24.551  1.00  0.00     0.018 C 
HETATM   17  C24 UNL     1      -1.149  51.281 -23.832  1.00  0.00    -0.026 A 
HETATM   18  C25 UNL     1      -1.703  52.227 -22.794  1.00  0.00     0.021 A 
HETATM   19  C26 UNL     1      -1.078  50.927 -22.320  1.00  0.00    -0.027 A 
HETATM   20  C27 UNL     1       0.285  51.033 -21.631  1.00  0.00     0.011 C 
HETATM   21  C28 UNL     1       0.329  50.833 -20.105  1.00  0.00     0.011 C 
HETATM   22  C29 UNL     1      -0.951  50.245 -19.496  1.00  0.00    -0.032 C 
HETATM   23  C30 UNL     1      -1.925  51.425 -19.215  1.00  0.00     0.016 C 
ENDROOT
BRANCH   1  24
HETATM   24  C8  UNL     1      -0.465  50.033 -16.817  1.00  0.00     0.014 C 
HETATM   25  C7  UNL     1       0.263  49.104 -15.845  1.00  0.00     0.010 C 
HETATM   26  C6  UNL     1       0.272  49.738 -14.457  1.00  0.00     0.041 C 
HETATM   27  C4  UNL     1       0.822  51.193 -14.467  1.00  0.00     0.085 C 
HETATM   28  O3  UNL     1       1.163  51.610 -15.806  1.00  0.00    -0.377 OA
HETATM   29  C31 UNL     1       0.158  51.436 -16.808  1.00  0.00     0.174 C 
BRANCH  27  30
HETATM   30  C2  UNL     1       2.147  51.264 -13.623  1.00  0.00     0.014 C 
HETATM   31  C1  UNL     1       3.426  51.444 -14.454  1.00  0.00     0.012 C 
HETATM   32  C3  UNL     1       2.344  50.014 -12.743  1.00  0.00     0.012 C 
ENDBRANCH  27  30
BRANCH  27  33
HETATM   33  C5  UNL     1      -0.272  52.145 -13.903  1.00  0.00     0.202 C 
BRANCH  33  34
HETATM   34  O1  UNL     1       0.286  53.231 -13.165  1.00  0.00    -0.398 OA
HETATM   35  H10 UNL     1       1.165  53.395 -13.557  1.00  0.00     0.209 HD
ENDBRANCH  33  34
ENDBRANCH  27  33
ENDBRANCH   1  24
TORSDOF 4
ENDMDL
