MODEL 1
REMARK minimizedAffinity -6.12043095
REMARK CNNscore 0.772612154
REMARK CNNaffinity 6.9499855
REMARK  10 active torsions:
REMARK  status: ('A' for Active; 'I' for Inactive)
REMARK    1  A    between atoms: C2_2  and  O1_3 
REMARK    2  A    between atoms: O1_3  and  C3_4 
REMARK    3  A    between atoms: C3_4  and  C4_6 
REMARK    4  A    between atoms: C4_6  and  C5_7 
REMARK    5  A    between atoms: C5_7  and  C6_8 
REMARK    6  A    between atoms: C6_8  and  C8_10 
REMARK    7  A    between atoms: C13_15  and  O3_16 
REMARK    8  A    between atoms: C17_21  and  O4_22 
REMARK    9  A    between atoms: C24_29  and  O5_30 
REMARK   10  A    between atoms: O5_30  and  C25_31 
ROOT
HETATM    1  C8  UNL     1      -0.716  10.949  18.122  1.00  0.00     0.000 C 
HETATM    2  C9  UNL     1      -1.911  10.268  18.851  1.00  0.00     0.006 C 
HETATM    3  C10 UNL     1      -2.536   9.267  17.879  1.00  0.00     0.006 C 
HETATM    4  C11 UNL     1      -1.580   9.238  16.696  1.00  0.00     0.003 C 
HETATM    5  C12 UNL     1      -2.055   8.609  15.368  1.00  0.00     0.025 C 
HETATM    6  C13 UNL     1      -3.570   8.648  15.069  1.00  0.00     0.137 C 
HETATM    7  C14 UNL     1      -3.839   8.520  13.555  1.00  0.00     0.092 C 
HETATM    8 BR1  UNL     1      -5.714   8.086  13.204  1.00  0.00    -0.088 Br
HETATM    9  C15 UNL     1      -2.868   7.585  12.807  1.00  0.00     0.013 C 
HETATM   10  C16 UNL     1      -2.970   6.107  13.235  1.00  0.00     0.038 C 
HETATM   11  C17 UNL     1      -2.069   5.206  12.387  1.00  0.00     0.118 C 
HETATM   12  C18 UNL     1      -0.681   5.789  12.127  1.00  0.00     0.032 C 
HETATM   13  C19 UNL     1      -0.362   6.964  13.051  1.00  0.00     0.012 C 
HETATM   14  C20 UNL     1      -1.381   8.132  12.933  1.00  0.00    -0.035 C 
HETATM   15  C21 UNL     1      -1.061   8.928  11.638  1.00  0.00     0.016 C 
HETATM   16  C22 UNL     1      -1.251   9.131  14.151  1.00  0.00     0.003 C 
HETATM   17  C23 UNL     1       0.175   9.501  14.577  1.00  0.00     0.039 C 
HETATM   18  C24 UNL     1       0.231  10.640  15.637  1.00  0.00     0.141 C 
HETATM   19  C27 UNL     1      -1.009  10.676  16.599  1.00  0.00    -0.009 C 
HETATM   20  C28 UNL     1      -2.059  11.690  16.079  1.00  0.00     0.018 C 
ENDROOT
BRANCH   1  21
HETATM   21  C6  UNL     1      -0.511  12.419  18.610  1.00  0.00    -0.013 C 
HETATM   22  C7  UNL     1      -1.830  12.982  19.171  1.00  0.00     0.010 C 
BRANCH  21  23
HETATM   23  C5  UNL     1       0.613  12.546  19.664  1.00  0.00     0.014 C 
BRANCH  23  24
HETATM   24  C4  UNL     1       0.938  11.267  20.442  1.00  0.00     0.111 C 
BRANCH  24  25
HETATM   25  C3  UNL     1       2.377  10.838  20.284  1.00  0.00     0.258 C 
HETATM   26  O2  UNL     1       2.745   9.817  19.720  1.00  0.00    -0.265 OA
BRANCH  25  27
HETATM   27  O1  UNL     1       3.198  11.739  20.889  1.00  0.00    -0.322 OA
BRANCH  27  28
HETATM   28  C2  UNL     1       3.147  11.714  22.321  1.00  0.00     0.174 C 
HETATM   29  C1  UNL     1       4.440  11.109  22.830  1.00  0.00     0.034 C 
ENDBRANCH  27  28
ENDBRANCH  25  27
ENDBRANCH  24  25
ENDBRANCH  23  24
ENDBRANCH  21  23
ENDBRANCH   1  21
BRANCH  18  30
HETATM   30  O5  UNL     1       1.444  10.436  16.397  1.00  0.00    -0.316 OA
BRANCH  30  31
HETATM   31  C25 UNL     1       2.380  11.423  16.331  1.00  0.00     0.255 C 
HETATM   32  C26 UNL     1       3.755  10.832  16.396  1.00  0.00     0.126 C 
HETATM   33  O6  UNL     1       2.148  12.621  16.256  1.00  0.00    -0.266 OA
ENDBRANCH  30  31
ENDBRANCH  18  30
BRANCH   6  34
HETATM   34  O3  UNL     1      -4.172   7.587  15.814  1.00  0.00    -0.394 OA
HETATM   35  H22 UNL     1      -5.094   7.503  15.507  1.00  0.00     0.210 HD
ENDBRANCH   6  34
BRANCH  11  36
HETATM   36  O4  UNL     1      -1.943   3.942  13.035  1.00  0.00    -0.396 OA
HETATM   37  H28 UNL     1      -1.529   4.090  13.903  1.00  0.00     0.210 HD
ENDBRANCH  11  36
TORSDOF 10
ENDMDL
