MODEL 1
REMARK minimizedAffinity -6.7405839
REMARK  2 active torsions:
REMARK  status: ('A' for Active; 'I' for Inactive)
REMARK    1  A    between atoms: C4_5  and  S1_6 
REMARK    2  A    between atoms: S1_6  and  C5_7 
ROOT
HETATM    1  C5  UNL     1      -4.542   5.044  13.074  1.00  0.00     0.029 A 
HETATM    2  C6  UNL     1      -5.865   4.615  13.261  1.00  0.00     0.046 A 
HETATM    3  C7  UNL     1      -6.349   3.481  12.601  1.00  0.00     0.057 A 
HETATM    4 CL2  UNL     1      -7.994   3.032  12.879  1.00  0.00    -0.083 Cl
HETATM    5  C8  UNL     1      -5.508   2.757  11.751  1.00  0.00     0.057 A 
HETATM    6 CL3  UNL     1      -6.037   1.349  10.903  1.00  0.00    -0.082 Cl
HETATM    7  C9  UNL     1      -4.185   3.167  11.568  1.00  0.00     0.051 A 
HETATM    8  C10 UNL     1      -3.701   4.302  12.228  1.00  0.00     0.052 A 
HETATM    9 CL4  UNL     1      -2.044   4.720  11.959  1.00  0.00    -0.083 Cl
ENDROOT
BRANCH   1  10
HETATM   10  S1  UNL     1      -4.022   6.509  13.965  1.00  0.00    -0.089 SA
BRANCH  10  11
HETATM   11  C4  UNL     1      -5.546   6.963  14.776  1.00  0.00     0.005 A 
HETATM   12  C3  UNL     1      -6.044   6.159  15.807  1.00  0.00     0.020 A 
HETATM   13  C2  UNL     1      -7.238   6.496  16.450  1.00  0.00     0.025 A 
HETATM   14  C1  UNL     1      -7.939   7.633  16.056  1.00  0.00     0.034 A 
HETATM   15 CL1  UNL     1      -9.409   8.050  16.846  1.00  0.00    -0.084 Cl
HETATM   16  C12 UNL     1      -7.459   8.435  15.021  1.00  0.00     0.025 A 
HETATM   17  C11 UNL     1      -6.264   8.097  14.379  1.00  0.00     0.020 A 
ENDBRANCH  10  11
ENDBRANCH   1  10
TORSDOF 2
ENDMDL
