MODEL 1
REMARK minimizedAffinity -7.89459753
REMARK  21 active torsions:
REMARK  status: ('A' for Active; 'I' for Inactive)
REMARK    1  A    between atoms: C2_2  and  C14_18 
REMARK    2  A    between atoms: C3_3  and  C4_4 
REMARK    3  A    between atoms: C4_4  and  O2_6 
REMARK    4  A    between atoms: O2_6  and  C5_7 
REMARK    5  A    between atoms: C5_7  and  C6_8 
REMARK    6  A    between atoms: C6_8  and  C7_9 
REMARK    7  A    between atoms: C7_9  and  C8_10 
REMARK    8  A    between atoms: C8_10  and  C9_11 
REMARK    9  A    between atoms: C9_11  and  C10_12 
REMARK   10  A    between atoms: C10_12  and  C11_13 
REMARK   11  A    between atoms: C11_13  and  C12_14 
REMARK   12  A    between atoms: C12_14  and  C13_15 
REMARK   13  A    between atoms: C13_15  and  O4_17 
REMARK   14  A    between atoms: C14_18  and  C15_19 
REMARK   15  A    between atoms: C17_22  and  O6_23 
REMARK   16  A    between atoms: C17_22  and  C18_24 
REMARK   17  A    between atoms: C18_24  and  C19_25 
REMARK   18  A    between atoms: C20_26  and  C21_27 
REMARK   19  A    between atoms: C21_27  and  C23_29 
REMARK   20  A    between atoms: C23_29  and  O7_31 
REMARK   21  A    between atoms: C25_32  and  O8_33 
ROOT
HETATM    1  C15 UNL     1      -3.646  50.401 -21.505  1.00  0.00     0.197 C 
HETATM    2  O5  UNL     1      -4.486  49.268 -21.219  1.00  0.00    -0.375 OA
HETATM    3  C16 UNL     1      -5.840  49.487 -21.616  1.00  0.00     0.210 C 
HETATM    4  C17 UNL     1      -5.957  49.632 -23.147  1.00  0.00     0.115 C 
HETATM    5  C25 UNL     1      -5.092  50.834 -23.588  1.00  0.00     0.227 C 
HETATM    6  C26 UNL     1      -3.691  50.683 -23.011  1.00  0.00     0.187 C 
HETATM    7  O9  UNL     1      -2.694  50.789 -23.725  1.00  0.00    -0.292 OA
ENDROOT
BRANCH   1   8
HETATM    8  C14 UNL     1      -2.232  50.068 -20.996  1.00  0.00     0.073 C 
BRANCH   8   9
HETATM    9  C2  UNL     1      -1.891  50.735 -19.671  1.00  0.00    -0.075 C 
HETATM   10  C1  UNL     1      -3.047  51.401 -18.971  1.00  0.00     0.043 C 
HETATM   11  C3  UNL     1      -0.613  50.740 -19.236  1.00  0.00     0.084 C 
BRANCH  11  12
HETATM   12  C4  UNL     1      -0.062  51.307 -17.986  1.00  0.00     0.283 C 
HETATM   13  O1  UNL     1      -0.305  50.821 -16.894  1.00  0.00    -0.260 OA
BRANCH  12  14
HETATM   14  O2  UNL     1       0.653  52.431 -18.225  1.00  0.00    -0.318 OA
BRANCH  14  15
HETATM   15  C5  UNL     1       0.260  53.187 -19.383  1.00  0.00     0.179 C 
BRANCH  15  16
HETATM   16  C6  UNL     1       1.496  53.774 -20.060  1.00  0.00     0.027 C 
BRANCH  16  17
HETATM   17  C7  UNL     1       1.333  54.000 -21.565  1.00  0.00     0.002 C 
BRANCH  17  18
HETATM   18  C8  UNL     1       0.596  52.866 -22.275  1.00  0.00     0.000 C 
BRANCH  18  19
HETATM   19  C9  UNL     1       0.486  53.041 -23.795  1.00  0.00     0.000 C 
BRANCH  19  20
HETATM   20  C10 UNL     1       0.276  51.739 -24.577  1.00  0.00     0.001 C 
BRANCH  20  21
HETATM   21  C11 UNL     1       0.132  51.873 -26.101  1.00  0.00     0.010 C 
BRANCH  21  22
HETATM   22  C12 UNL     1       0.195  53.313 -26.618  1.00  0.00     0.110 C 
BRANCH  22  23
HETATM   23  C13 UNL     1      -0.667  53.565 -27.828  1.00  0.00     0.139 C 
HETATM   24  O3  UNL     1      -1.823  53.945 -27.857  1.00  0.00    -0.650 OA
BRANCH  23  25
HETATM   25  O4  UNL     1      -0.009  53.297 -28.974  1.00  0.00    -0.776 OA
HETATM   26  H21 UNL     1      -0.668  53.483 -29.674  1.00  0.00     0.167 HD
ENDBRANCH  23  25
ENDBRANCH  22  23
ENDBRANCH  21  22
ENDBRANCH  20  21
ENDBRANCH  19  20
ENDBRANCH  18  19
ENDBRANCH  17  18
ENDBRANCH  16  17
ENDBRANCH  15  16
ENDBRANCH  14  15
ENDBRANCH  12  14
ENDBRANCH  11  12
ENDBRANCH   8   9
ENDBRANCH   1   8
BRANCH   5  27
HETATM   27  O8  UNL     1      -5.683  52.050 -23.117  1.00  0.00    -0.385 OA
HETATM   28  H42 UNL     1      -6.634  51.965 -23.334  1.00  0.00     0.210 HD
ENDBRANCH   5  27
BRANCH   4  29
HETATM   29  O6  UNL     1      -7.324  49.956 -23.485  1.00  0.00    -0.384 OA
HETATM   30  H27 UNL     1      -7.853  49.145 -23.370  1.00  0.00     0.210 HD
ENDBRANCH   4  29
BRANCH   4  31
HETATM   31  C18 UNL     1      -5.515  48.362 -23.921  1.00  0.00     0.070 C 
BRANCH  31  32
HETATM   32  C19 UNL     1      -5.307  48.561 -25.405  1.00  0.00    -0.027 C 
HETATM   33  C20 UNL     1      -4.114  48.463 -26.014  1.00  0.00    -0.024 C 
BRANCH  33  34
HETATM   34  C21 UNL     1      -3.822  48.554 -27.507  1.00  0.00     0.032 C 
HETATM   35  C22 UNL     1      -5.041  48.276 -28.399  1.00  0.00     0.017 C 
BRANCH  34  36
HETATM   36  C23 UNL     1      -3.156  49.895 -27.917  1.00  0.00     0.121 C 
HETATM   37  C24 UNL     1      -3.265  50.993 -26.864  1.00  0.00     0.040 C 
BRANCH  36  38
HETATM   38  O7  UNL     1      -3.697  50.390 -29.144  1.00  0.00    -0.395 OA
HETATM   39  H40 UNL     1      -4.663  50.381 -29.061  1.00  0.00     0.210 HD
ENDBRANCH  36  38
ENDBRANCH  34  36
ENDBRANCH  33  34
ENDBRANCH  31  32
ENDBRANCH   4  31
TORSDOF 21
ENDMDL
