MODEL 1
REMARK minimizedAffinity -10.1371498
REMARK  0 active torsions:
REMARK  status: ('A' for Active; 'I' for Inactive)
ROOT
HETATM    1  C1  UNL     1       2.961  11.439  14.250  1.00  0.00     0.023 C 
HETATM    2  C2  UNL     1       2.635  10.202  15.116  1.00  0.00     0.017 C 
HETATM    3  C3  UNL     1       2.717  10.638  16.590  1.00  0.00     0.023 C 
HETATM    4  C4  UNL     1       3.734   9.172  14.832  1.00  0.00     0.135 C 
HETATM    5  O1  UNL     1       4.817   9.179  15.419  1.00  0.00    -0.297 OA
HETATM    6  C5  UNL     1       3.468   8.185  13.725  1.00  0.00     0.080 C 
HETATM    7  C6  UNL     1       2.198   7.373  13.961  1.00  0.00     0.017 C 
HETATM    8  C7  UNL     1       1.105   8.057  14.858  1.00  0.00    -0.035 C 
HETATM    9  C8  UNL     1       1.377   7.590  16.308  1.00  0.00     0.016 C 
HETATM   10  C9  UNL     1      -0.324   7.604  14.323  1.00  0.00     0.003 C 
HETATM   11  C10 UNL     1      -0.576   6.083  14.406  1.00  0.00     0.006 C 
HETATM   12  C11 UNL     1      -1.824   5.644  13.636  1.00  0.00     0.006 C 
HETATM   13  C12 UNL     1      -3.081   6.412  14.057  1.00  0.00    -0.000 C 
HETATM   14  C13 UNL     1      -4.377   5.955  13.346  1.00  0.00     0.009 C 
HETATM   15  C14 UNL     1      -4.780   4.466  13.321  1.00  0.00     0.067 A 
HETATM   16  C15 UNL     1      -6.332   4.514  13.174  1.00  0.00     0.140 A 
HETATM   17  C16 UNL     1      -6.740   5.992  13.203  1.00  0.00     0.042 C 
HETATM   18  C17 UNL     1      -5.605   6.657  13.985  1.00  0.00    -0.037 C 
HETATM   19  C18 UNL     1      -5.815   6.365  15.494  1.00  0.00     0.015 C 
HETATM   20  C19 UNL     1      -5.489   8.170  13.764  1.00  0.00     0.010 C 
HETATM   21  C20 UNL     1      -4.184   8.732  14.363  1.00  0.00     0.011 C 
HETATM   22  C21 UNL     1      -2.876   7.981  13.923  1.00  0.00    -0.032 C 
HETATM   23  C22 UNL     1      -2.672   8.368  12.417  1.00  0.00     0.016 C 
HETATM   24  C23 UNL     1      -1.583   8.420  14.817  1.00  0.00    -0.032 C 
HETATM   25  C24 UNL     1      -1.874   8.160  16.325  1.00  0.00     0.016 C 
HETATM   26  C25 UNL     1      -1.277   9.936  14.670  1.00  0.00     0.011 C 
HETATM   27  C26 UNL     1       0.049  10.372  15.297  1.00  0.00     0.007 C 
HETATM   28  C27 UNL     1       1.241   9.612  14.690  1.00  0.00     0.009 C 
HETATM   29  O2  UNL     1      -6.721   3.937  11.918  1.00  0.00    -0.313 OA
HETATM   30  C28 UNL     1      -5.628   3.453  11.267  1.00  0.00     0.297 A 
HETATM   31  O3  UNL     1      -5.640   2.882  10.190  1.00  0.00    -0.262 OA
HETATM   32  C29 UNL     1      -4.438   3.683  12.100  1.00  0.00     0.175 A 
HETATM   33  C30 UNL     1      -3.269   2.729  12.050  1.00  0.00     0.218 A 
HETATM   34  O4  UNL     1      -3.220   4.022  11.431  1.00  0.00    -0.364 OA
ENDROOT
TORSDOF 0
ENDMDL
