MODEL 1
REMARK minimizedAffinity -9.19236565
REMARK  5 active torsions:
REMARK  status: ('A' for Active; 'I' for Inactive)
REMARK    1  A    between atoms: C2_2  and  C4_4 
REMARK    2  A    between atoms: C7_7  and  C8_8 
REMARK    3  A    between atoms: C8_8  and  O2_10 
REMARK    4  A    between atoms: C11_13  and  C12_14 
REMARK    5  A    between atoms: C12_14  and  O4_16 
ROOT
HETATM    1  C4  UNL     1      -5.374   4.463  13.077  1.00  0.00     0.019 C 
HETATM    2  C5  UNL     1      -6.914   4.532  12.883  1.00  0.00     0.011 C 
HETATM    3  C6  UNL     1      -7.334   5.977  13.201  1.00  0.00     0.021 C 
HETATM    4  C7  UNL     1      -6.210   6.499  14.103  1.00  0.00     0.050 C 
HETATM    5  C9  UNL     1      -6.080   8.024  14.180  1.00  0.00     0.022 C 
HETATM    6  C10 UNL     1      -4.756   8.431  14.868  1.00  0.00     0.023 C 
HETATM    7  C11 UNL     1      -3.465   7.838  14.187  1.00  0.00     0.057 C 
HETATM    8  C13 UNL     1      -3.658   6.272  14.096  1.00  0.00     0.011 C 
HETATM    9  C14 UNL     1      -2.429   5.519  13.577  1.00  0.00     0.007 C 
HETATM   10  C15 UNL     1      -1.137   5.911  14.295  1.00  0.00     0.006 C 
HETATM   11  C16 UNL     1      -0.897   7.436  14.327  1.00  0.00     0.003 C 
HETATM   12  C17 UNL     1       0.568   7.864  14.803  1.00  0.00    -0.035 C 
HETATM   13  C18 UNL     1       0.906   7.317  16.209  1.00  0.00     0.016 C 
HETATM   14  C19 UNL     1       1.610   7.278  13.799  1.00  0.00     0.017 C 
HETATM   15  C20 UNL     1       3.027   7.807  13.974  1.00  0.00     0.080 C 
HETATM   16  C21 UNL     1       3.072   9.315  13.967  1.00  0.00     0.135 C 
HETATM   17  O5  UNL     1       3.941   9.897  13.313  1.00  0.00    -0.297 OA
HETATM   18  C22 UNL     1       2.084  10.065  14.876  1.00  0.00     0.017 C 
HETATM   19  C23 UNL     1       2.627  10.044  16.311  1.00  0.00     0.023 C 
HETATM   20  C24 UNL     1       2.061  11.547  14.420  1.00  0.00     0.023 C 
HETATM   21  C25 UNL     1       0.661   9.432  14.692  1.00  0.00     0.009 C 
HETATM   22  C26 UNL     1      -0.446  10.112  15.521  1.00  0.00     0.007 C 
HETATM   23  C27 UNL     1      -1.834   9.715  15.009  1.00  0.00     0.011 C 
HETATM   24  C28 UNL     1      -2.113   8.186  15.007  1.00  0.00    -0.022 C 
HETATM   25  C29 UNL     1      -2.287   7.768  16.496  1.00  0.00     0.017 C 
HETATM   26  C30 UNL     1      -4.976   5.930  13.360  1.00  0.00     0.018 C 
ENDROOT
BRANCH   4  27
HETATM   27  C8  UNL     1      -6.454   5.939  15.514  1.00  0.00     0.149 C 
HETATM   28  O1  UNL     1      -7.460   5.397  15.937  1.00  0.00    -0.649 OA
BRANCH  27  29
HETATM   29  O2  UNL     1      -5.400   6.112  16.337  1.00  0.00    -0.776 OA
HETATM   30  H11 UNL     1      -5.696   5.728  17.188  1.00  0.00     0.167 HD
ENDBRANCH  27  29
ENDBRANCH   4  27
BRANCH   1  31
HETATM   31  C2  UNL     1      -4.687   3.778  11.907  1.00  0.00    -0.088 C 
HETATM   32  C1  UNL     1      -3.387   4.000  11.647  1.00  0.00     0.014 C 
HETATM   33  C3  UNL     1      -5.482   2.826  11.053  1.00  0.00     0.043 C 
ENDBRANCH   1  31
BRANCH   7  34
HETATM   34  C12 UNL     1      -3.419   8.524  12.794  1.00  0.00     0.149 C 
HETATM   35  O3  UNL     1      -2.431   8.641  12.082  1.00  0.00    -0.649 OA
BRANCH  34  36
HETATM   36  O4  UNL     1      -4.585   9.005  12.340  1.00  0.00    -0.776 OA
HETATM   37  H16 UNL     1      -4.361   9.374  11.459  1.00  0.00     0.167 HD
ENDBRANCH  34  36
ENDBRANCH   7  34
TORSDOF 5
ENDMDL
