MODEL 1
REMARK minimizedAffinity -9.39837456
REMARK  6 active torsions:
REMARK  status: ('A' for Active; 'I' for Inactive)
REMARK    1  A    between atoms: O1_2  and  C2_3 
REMARK    2  A    between atoms: C9_12  and  C10_13 
REMARK    3  A    between atoms: C13_16  and  O4_17 
REMARK    4  A    between atoms: O4_17  and  C14_18 
REMARK    5  A    between atoms: C14_18  and  C15_19 
REMARK       I    between atoms: C15_19  and  N1_21 
REMARK    6  A    between atoms: N1_21  and  C16_22 
ROOT
HETATM    1  C10 UNL     1       0.137  51.841 -20.217  1.00  0.00    -0.020 A 
HETATM    2  C11 UNL     1       0.737  52.802 -19.394  1.00  0.00     0.015 A 
HETATM    3  C12 UNL     1       0.828  52.609 -18.010  1.00  0.00     0.037 A 
HETATM    4  C13 UNL     1       0.315  51.451 -17.429  1.00  0.00     0.069 A 
HETATM    5  C23 UNL     1      -0.286  50.488 -18.243  1.00  0.00     0.037 A 
HETATM    6  C24 UNL     1      -0.377  50.679 -19.625  1.00  0.00     0.015 A 
ENDROOT
BRANCH   4   7
HETATM    7  O4  UNL     1       0.333  51.141 -16.097  1.00  0.00    -0.342 OA
BRANCH   7   8
HETATM    8  C14 UNL     1       1.020  52.048 -15.235  1.00  0.00     0.278 C 
BRANCH   8   9
HETATM    9  C15 UNL     1       0.613  51.811 -13.780  1.00  0.00     0.242 C 
HETATM   10  O5  UNL     1       0.564  50.687 -13.289  1.00  0.00    -0.271 OA
HETATM   11  N1  UNL     1       0.352  52.966 -13.070  1.00  0.00    -0.354 N 
HETATM   12  H11 UNL     1       0.225  53.801 -13.635  1.00  0.00     0.162 HD
BRANCH  11  13
HETATM   13  C16 UNL     1      -0.164  52.940 -11.706  1.00  0.00     0.089 C 
HETATM   14  C17 UNL     1       0.383  54.122 -10.898  1.00  0.00     0.051 C 
HETATM   15  C18 UNL     1      -0.729  55.058 -10.455  1.00  0.00     0.171 C 
HETATM   16  O6  UNL     1      -1.699  54.355  -9.688  1.00  0.00    -0.381 OA
HETATM   17  C19 UNL     1      -2.290  53.213 -10.327  1.00  0.00     0.055 C 
HETATM   18  C20 UNL     1      -3.789  53.500 -10.459  1.00  0.00     0.045 C 
HETATM   19  C21 UNL     1      -2.089  52.027  -9.375  1.00  0.00     0.045 C 
HETATM   20  C22 UNL     1      -1.696  52.913 -11.716  1.00  0.00     0.062 C 
ENDBRANCH  11  13
ENDBRANCH   8   9
ENDBRANCH   7   8
ENDBRANCH   4   7
BRANCH   1  21
HETATM   21  C9  UNL     1       0.050  52.052 -21.677  1.00  0.00     0.051 A 
HETATM   22  C8  UNL     1       0.791  53.172 -22.329  1.00  0.00     0.299 A 
HETATM   23  O2  UNL     1       0.659  53.292 -23.706  1.00  0.00    -0.271 OA
HETATM   24  O3  UNL     1       1.487  53.955 -21.689  1.00  0.00    -0.259 OA
HETATM   25  C7  UNL     1      -0.124  52.404 -24.475  1.00  0.00     0.123 A 
HETATM   26  C2  UNL     1      -0.190  52.610 -25.860  1.00  0.00     0.102 A 
HETATM   27  C6  UNL     1      -0.798  51.359 -23.850  1.00  0.00     0.002 A 
HETATM   28  C3  UNL     1      -0.963  51.732 -26.623  1.00  0.00     0.040 A 
HETATM   29  C4  UNL     1      -1.646  50.676 -26.010  1.00  0.00     0.004 A 
HETATM   30  C5  UNL     1      -1.565  50.489 -24.628  1.00  0.00     0.014 A 
HETATM   31  C25 UNL     1      -0.687  51.201 -22.410  1.00  0.00     0.032 A 
BRANCH  26  32
HETATM   32  O1  UNL     1       0.519  53.673 -26.350  1.00  0.00    -0.353 OA
HETATM   33  C1  UNL     1      -0.061  54.410 -27.417  1.00  0.00     0.210 C 
ENDBRANCH  26  32
ENDBRANCH   1  21
TORSDOF 6
ENDMDL
