MODEL 1
REMARK minimizedAffinity -10.2990026
REMARK  5 active torsions:
REMARK  status: ('A' for Active; 'I' for Inactive)
REMARK    1  A    between atoms: N1_2  and  C2_3 
REMARK    2  A    between atoms: C4_5  and  N3_29 
REMARK    3  A    between atoms: C5_7  and  N2_12 
REMARK    4  A    between atoms: C7_9  and  O2_10 
REMARK    5  A    between atoms: C28_35  and  O4_36 
ROOT
HETATM    1  C2  UNL     1      10.096  -3.237  31.540  1.00  0.00     0.257 C 
HETATM    2  C3  UNL     1      10.028  -4.132  30.311  1.00  0.00     0.092 C 
HETATM    3  C4  UNL     1       9.046  -5.270  30.545  1.00  0.00     0.234 C 
HETATM    4  O1  UNL     1       8.750  -5.543  31.908  1.00  0.00    -0.333 OA
HETATM    5  C5  UNL     1       9.780  -5.382  32.914  1.00  0.00     0.168 C 
HETATM    6  C6  UNL     1       8.889  -5.342  34.179  1.00  0.00     0.074 C 
HETATM    7  C7  UNL     1      10.637  -4.069  32.734  1.00  0.00     0.209 C 
ENDROOT
BRANCH   1   8
HETATM    8  N1  UNL     1      10.811  -1.973  31.268  1.00  0.00     0.086 N 
HETATM    9  C1  UNL     1      10.267  -0.785  31.907  1.00  0.00     0.307 C 
HETATM   10  H4  UNL     1      10.848  -1.838  30.256  1.00  0.00     0.316 HD
ENDBRANCH   1   8
BRANCH   7  11
HETATM   11  O2  UNL     1      10.606  -3.255  33.927  1.00  0.00    -0.384 OA
HETATM   12  C8  UNL     1      11.875  -3.088  34.548  1.00  0.00     0.202 C 
ENDBRANCH   7  11
BRANCH   3  13
HETATM   13  N3  UNL     1       9.448  -6.502  29.886  1.00  0.00    -0.316 N 
HETATM   14  C24 UNL     1      10.709  -7.069  29.911  1.00  0.00     0.048 A 
HETATM   15  C19 UNL     1      10.631  -8.276  29.194  1.00  0.00     0.004 A 
HETATM   16  C23 UNL     1      11.905  -6.630  30.505  1.00  0.00     0.030 A 
HETATM   17  C18 UNL     1       9.281  -8.426  28.746  1.00  0.00     0.022 A 
HETATM   18  C20 UNL     1      11.804  -9.052  29.071  1.00  0.00     0.014 A 
HETATM   19  C17 UNL     1       8.493  -9.336  28.030  1.00  0.00     0.057 A 
HETATM   20  C25 UNL     1       8.602  -7.308  29.197  1.00  0.00     0.077 A 
HETATM   21  C16 UNL     1       7.097  -9.179  27.772  1.00  0.00     0.020 A 
HETATM   22  C27 UNL     1       8.897 -10.619  27.437  1.00  0.00     0.255 C 
HETATM   23  C15 UNL     1       6.376  -8.061  28.228  1.00  0.00     0.017 A 
HETATM   24  C28 UNL     1       6.609 -10.392  27.033  1.00  0.00     0.257 C 
HETATM   25  C14 UNL     1       5.025  -7.625  28.203  1.00  0.00     0.004 A 
HETATM   26  C26 UNL     1       7.085  -7.099  28.921  1.00  0.00     0.077 A 
HETATM   27  C9  UNL     1       4.957  -6.406  28.901  1.00  0.00     0.049 A 
HETATM   28  C13 UNL     1       3.842  -8.181  27.669  1.00  0.00     0.014 A 
HETATM   29  N2  UNL     1       6.262  -6.056  29.264  1.00  0.00    -0.308 N 
HETATM   30  C10 UNL     1       3.715  -5.773  29.102  1.00  0.00     0.030 A 
HETATM   31  C11 UNL     1       2.559  -6.350  28.571  1.00  0.00     0.002 A 
HETATM   32  C12 UNL     1       2.618  -7.536  27.854  1.00  0.00     0.001 A 
HETATM   33  N4  UNL     1       7.794 -11.142  26.799  1.00  0.00    -0.326 N 
HETATM   34  H24 UNL     1       7.802 -12.086  26.445  1.00  0.00     0.165 HD
HETATM   35  O3  UNL     1       9.984 -11.155  27.490  1.00  0.00    -0.268 OA
HETATM   36  C21 UNL     1      12.998  -8.619  29.656  1.00  0.00     0.001 A 
HETATM   37  C22 UNL     1      13.046  -7.424  30.365  1.00  0.00     0.002 A 
BRANCH  24  38
HETATM   38  O4  UNL     1       6.080 -10.080  25.773  1.00  0.00    -0.372 OA
HETATM   39  H26 UNL     1       6.843  -9.776  25.252  1.00  0.00     0.212 HD
ENDBRANCH  24  38
ENDBRANCH   3  13
TORSDOF 5
ENDMDL
