MODEL 1
REMARK minimizedAffinity -10.6769562
REMARK  7 active torsions:
REMARK  status: ('A' for Active; 'I' for Inactive)
REMARK    1  A    between atoms: C3_3  and  C4_4 
REMARK    2  A    between atoms: C4_4  and  O1_5 
REMARK    3  A    between atoms: C6_9  and  C7_10 
REMARK    4  A    between atoms: C7_10  and  C9_12 
REMARK    5  A    between atoms: C9_12  and  O4_13 
REMARK    6  A    between atoms: C10_14  and  O5_15 
REMARK    7  A    between atoms: C17_22  and  O6_23 
ROOT
HETATM    1  C9  UNL     1      -0.300   5.797  11.803  1.00  0.00     0.097 C 
HETATM    2  C10 UNL     1      -0.499   4.296  11.338  1.00  0.00     0.154 C 
HETATM    3  C11 UNL     1      -1.919   3.870  11.750  1.00  0.00     0.040 C 
HETATM    4  C12 UNL     1      -2.564   5.140  12.285  1.00  0.00     0.004 C 
HETATM    5  C13 UNL     1      -3.806   4.982  13.177  1.00  0.00    -0.001 C 
HETATM    6  C14 UNL     1      -4.891   4.181  12.449  1.00  0.00     0.033 C 
HETATM    7  C15 UNL     1      -6.216   4.235  13.135  1.00  0.00    -0.019 C 
HETATM    8  C16 UNL     1      -6.556   5.136  14.078  1.00  0.00    -0.035 C 
HETATM    9  C17 UNL     1      -7.941   5.086  14.685  1.00  0.00     0.171 C 
HETATM   10  C18 UNL     1      -8.531   6.433  14.920  1.00  0.00     0.013 C 
HETATM   11  C19 UNL     1      -7.873   7.589  14.776  1.00  0.00     0.050 C 
HETATM   12  C20 UNL     1      -6.429   7.600  14.426  1.00  0.00     0.162 C 
HETATM   13  O7  UNL     1      -5.933   8.689  14.141  1.00  0.00    -0.292 OA
HETATM   14  C21 UNL     1      -5.619   6.277  14.521  1.00  0.00     0.051 C 
HETATM   15  C22 UNL     1      -5.215   6.083  15.997  1.00  0.00     0.029 C 
HETATM   16  C23 UNL     1      -4.348   6.384  13.580  1.00  0.00     0.011 C 
HETATM   17  C24 UNL     1      -3.207   7.275  14.142  1.00  0.00     0.007 C 
HETATM   18  C25 UNL     1      -1.955   7.323  13.245  1.00  0.00     0.013 C 
HETATM   19  C26 UNL     1      -1.390   5.914  12.948  1.00  0.00    -0.006 C 
HETATM   20  C27 UNL     1      -0.902   5.242  14.259  1.00  0.00     0.019 C 
ENDROOT
BRANCH   1  21
HETATM   21  C7  UNL     1       1.196   6.180  12.136  1.00  0.00     0.049 C 
HETATM   22  C8  UNL     1       1.359   6.688  13.579  1.00  0.00     0.016 C 
BRANCH  21  23
HETATM   23  C6  UNL     1       1.777   7.279  11.170  1.00  0.00     0.143 C 
HETATM   24  O3  UNL     1       2.340   6.704   9.975  1.00  0.00    -0.311 OA
HETATM   25  C5  UNL     1       3.610   6.217   9.977  1.00  0.00     0.292 C 
HETATM   26  C3  UNL     1       4.499   6.564  11.126  1.00  0.00     0.042 C 
HETATM   27  O2  UNL     1       3.985   5.479   9.070  1.00  0.00    -0.260 OA
HETATM   28  C2  UNL     1       4.118   7.540  11.983  1.00  0.00    -0.067 C 
HETATM   29  C1  UNL     1       4.909   7.995  13.176  1.00  0.00     0.044 C 
HETATM   30  C28 UNL     1       2.810   8.244  11.760  1.00  0.00     0.067 C 
BRANCH  26  31
HETATM   31  C4  UNL     1       5.783   5.774  11.112  1.00  0.00     0.209 C 
BRANCH  31  32
HETATM   32  O1  UNL     1       5.809   4.775  10.100  1.00  0.00    -0.396 OA
HETATM   33  H6  UNL     1       6.623   4.261  10.235  1.00  0.00     0.209 HD
ENDBRANCH  31  32
ENDBRANCH  26  31
ENDBRANCH  21  23
ENDBRANCH   1  21
BRANCH   1  34
HETATM   34  O4  UNL     1      -0.728   6.656  10.724  1.00  0.00    -0.386 OA
HETATM   35  H12 UNL     1      -0.331   6.326   9.898  1.00  0.00     0.210 HD
ENDBRANCH   1  34
BRANCH   2  36
HETATM   36  O5  UNL     1       0.414   3.398  11.961  1.00  0.00    -0.392 OA
HETATM   37  H14 UNL     1       0.545   2.657  11.335  1.00  0.00     0.210 HD
ENDBRANCH   2  36
BRANCH   9  38
HETATM   38  O6  UNL     1      -7.893   4.419  15.934  1.00  0.00    -0.387 OA
HETATM   39  H23 UNL     1      -7.346   3.625  15.805  1.00  0.00     0.210 HD
ENDBRANCH   9  38
TORSDOF 7
ENDMDL
