MODEL 1
REMARK minimizedAffinity -9.51461792
REMARK CNNscore 0.489913553
REMARK CNNaffinity 7.40072107
REMARK  13 active torsions:
REMARK  status: ('A' for Active; 'I' for Inactive)
REMARK    1  A    between atoms: O1_2  and  C2_3 
REMARK    2  A    between atoms: C4_5  and  O2_6 
REMARK    3  A    between atoms: O2_6  and  C5_7 
REMARK    4  A    between atoms: C10_12  and  C11_13 
REMARK    5  A    between atoms: C11_13  and  C12_14 
REMARK    6  A    between atoms: C12_14  and  O3_15 
REMARK    7  A    between atoms: C12_14  and  C22_26 
REMARK    8  A    between atoms: O3_15  and  C13_16 
REMARK    9  A    between atoms: C13_16  and  C14_18 
REMARK   10  A    between atoms: C15_19  and  C16_20 
REMARK   11  A    between atoms: C27_32  and  C28_33 
REMARK   12  A    between atoms: C33_40  and  O8_41 
REMARK   13  A    between atoms: C37_46  and  O10_47 
ROOT
HETATM    1  C5  UNL     1      -0.249  50.073 -17.615  1.00  0.00     0.128 C 
HETATM    2  C6  UNL     1      -0.876  48.752 -18.054  1.00  0.00     0.033 C 
HETATM    3  C7  UNL     1      -1.381  48.810 -19.495  1.00  0.00     0.016 C 
HETATM    4  C8  UNL     1      -2.369  49.992 -19.783  1.00  0.00     0.002 C 
HETATM    5  C9  UNL     1      -3.697  49.671 -19.045  1.00  0.00     0.019 C 
HETATM    6  C10 UNL     1      -2.633  50.049 -21.343  1.00  0.00     0.073 C 
HETATM    7  C30 UNL     1      -1.364  50.468 -22.070  1.00  0.00     0.154 C 
HETATM    8  O7  UNL     1      -1.075  50.037 -23.184  1.00  0.00    -0.293 OA
HETATM    9  C31 UNL     1      -0.470  51.463 -21.440  1.00  0.00     0.049 C 
HETATM   10  C32 UNL     1      -0.669  51.866 -20.180  1.00  0.00     0.015 C 
HETATM   11  C33 UNL     1      -1.752  51.341 -19.270  1.00  0.00     0.086 C 
HETATM   12  C34 UNL     1      -1.230  51.225 -17.827  1.00  0.00     0.075 C 
ENDROOT
BRANCH   6  13
HETATM   13  C11 UNL     1      -3.814  50.952 -21.785  1.00  0.00     0.047 C 
BRANCH  13  14
HETATM   14  C12 UNL     1      -4.308  50.781 -23.249  1.00  0.00     0.149 C 
BRANCH  14  15
HETATM   15  O3  UNL     1      -3.125  50.771 -24.078  1.00  0.00    -0.311 OA
BRANCH  15  16
HETATM   16  C13 UNL     1      -2.955  51.847 -24.897  1.00  0.00     0.283 C 
HETATM   17  O4  UNL     1      -2.617  52.962 -24.544  1.00  0.00    -0.260 OA
BRANCH  16  18
HETATM   18  C14 UNL     1      -3.300  51.424 -26.271  1.00  0.00     0.083 C 
HETATM   19  C15 UNL     1      -2.430  51.236 -27.278  1.00  0.00     0.017 C 
BRANCH  19  20
HETATM   20  C16 UNL     1      -0.968  51.360 -27.230  1.00  0.00    -0.036 A 
HETATM   21  C17 UNL     1      -0.251  51.985 -28.260  1.00  0.00     0.011 A 
HETATM   22  C18 UNL     1       1.141  52.109 -28.182  1.00  0.00     0.001 A 
HETATM   23  C19 UNL     1       1.822  51.615 -27.070  1.00  0.00     0.000 A 
HETATM   24  C20 UNL     1       1.115  51.010 -26.030  1.00  0.00     0.001 A 
HETATM   25  C21 UNL     1      -0.278  50.886 -26.108  1.00  0.00     0.011 A 
ENDBRANCH  19  20
ENDBRANCH  16  18
ENDBRANCH  15  16
ENDBRANCH  14  15
BRANCH  14  26
HETATM   26  C22 UNL     1      -5.161  49.476 -23.480  1.00  0.00     0.054 C 
HETATM   27  C23 UNL     1      -4.606  48.597 -24.611  1.00  0.00     0.027 C 
HETATM   28  C24 UNL     1      -5.178  48.711 -22.160  1.00  0.00     0.138 C 
HETATM   29  O5  UNL     1      -4.274  47.988 -21.766  1.00  0.00    -0.297 OA
HETATM   30  C25 UNL     1      -6.443  48.918 -21.366  1.00  0.00     0.080 C 
HETATM   31  C26 UNL     1      -7.232  49.901 -22.211  1.00  0.00     0.021 C 
HETATM   32  C27 UNL     1      -6.687  49.767 -23.636  1.00  0.00     0.073 C 
BRANCH  32  33
HETATM   33  C28 UNL     1      -7.466  48.778 -24.514  1.00  0.00     0.128 C 
HETATM   34  C29 UNL     1      -6.727  47.694 -25.255  1.00  0.00     0.091 C 
HETATM   35  O6  UNL     1      -8.686  48.906 -24.655  1.00  0.00    -0.298 OA
ENDBRANCH  32  33
ENDBRANCH  14  26
ENDBRANCH  13  14
ENDBRANCH   6  13
BRANCH  11  36
HETATM   36  O8  UNL     1      -2.762  52.351 -19.268  1.00  0.00    -0.385 OA
HETATM   37  H40 UNL     1      -2.396  53.165 -18.882  1.00  0.00     0.211 HD
ENDBRANCH  11  36
BRANCH   1  38
HETATM   38  O2  UNL     1       0.044  49.975 -16.219  1.00  0.00    -0.356 OA
BRANCH  38  39
HETATM   39  C4  UNL     1       0.573  51.176 -15.653  1.00  0.00     0.263 C 
HETATM   40  C3  UNL     1       0.478  51.037 -14.133  1.00  0.00     0.095 C 
HETATM   41  C2  UNL     1       1.782  50.451 -13.596  1.00  0.00     0.156 C 
HETATM   42  C37 UNL     1       2.934  51.430 -13.914  1.00  0.00     0.175 C 
HETATM   43  C35 UNL     1       2.731  52.119 -15.279  1.00  0.00     0.151 C 
HETATM   44  O9  UNL     1       1.912  51.318 -16.134  1.00  0.00    -0.354 OA
HETATM   45  C36 UNL     1       4.063  52.360 -15.980  1.00  0.00     0.042 C 
BRANCH  41  46
HETATM   46  O1  UNL     1       1.757  50.269 -12.169  1.00  0.00    -0.388 OA
HETATM   47  C1  UNL     1       0.544  49.682 -11.703  1.00  0.00     0.202 C 
ENDBRANCH  41  46
BRANCH  42  48
HETATM   48  O10 UNL     1       3.001  52.446 -12.901  1.00  0.00    -0.390 OA
HETATM   49  H48 UNL     1       2.709  51.997 -12.075  1.00  0.00     0.210 HD
ENDBRANCH  42  48
ENDBRANCH  38  39
ENDBRANCH   1  38
TORSDOF 13
ENDMDL
