MODEL 1
REMARK minimizedAffinity -7.58386898
REMARK CNNscore 0.690979958
REMARK CNNaffinity 6.83658361
REMARK  14 active torsions:
REMARK  status: ('A' for Active; 'I' for Inactive)
REMARK    1  A    between atoms: O1_2  and  C2_3 
REMARK    2  A    between atoms: C2_3  and  C3_4 
REMARK    3  A    between atoms: C3_4  and  C4_5 
REMARK    4  A    between atoms: C4_5  and  O2_6 
REMARK    5  A    between atoms: O2_6  and  C5_7 
REMARK    6  A    between atoms: C20_23  and  C21_24 
REMARK    7  A    between atoms: C21_24  and  O4_26 
REMARK    8  A    between atoms: C21_24  and  C23_27 
REMARK    9  A    between atoms: C23_27  and  O5_28 
REMARK   10  A    between atoms: C23_27  and  C24_29 
REMARK   11  A    between atoms: C25_31  and  C26_32 
REMARK   12  A    between atoms: C26_32  and  O7_33 
REMARK   13  A    between atoms: C27_34  and  C28_35 
REMARK   14  A    between atoms: C37_44  and  O8_45 
ROOT
HETATM    1  C5  UNL     1       1.916   6.187  10.604  1.00  0.00     0.122 C 
HETATM    2  C6  UNL     1       2.170   7.671  10.330  1.00  0.00     0.033 C 
HETATM    3  C7  UNL     1       1.557   8.582  11.395  1.00  0.00     0.013 C 
HETATM    4  C8  UNL     1       0.042   8.314  11.665  1.00  0.00    -0.026 C 
HETATM    5  C9  UNL     1      -0.753   8.713  10.396  1.00  0.00     0.016 C 
HETATM    6  C10 UNL     1      -0.153   6.806  11.968  1.00  0.00     0.071 C 
HETATM    7  C11 UNL     1       0.430   5.912  10.859  1.00  0.00     0.045 C 
HETATM    8  C12 UNL     1       0.458   6.413  13.314  1.00  0.00     0.154 C 
HETATM    9  O3  UNL     1       0.919   5.295  13.542  1.00  0.00    -0.293 OA
HETATM   10  C13 UNL     1       0.432   7.386  14.426  1.00  0.00     0.057 C 
HETATM   11  C14 UNL     1      -0.007   8.639  14.243  1.00  0.00    -0.037 C 
HETATM   12  C15 UNL     1      -0.418   9.200  12.883  1.00  0.00     0.026 C 
HETATM   13  C16 UNL     1      -1.924   9.554  12.946  1.00  0.00     0.011 C 
HETATM   14  C17 UNL     1      -2.279  10.469  14.145  1.00  0.00     0.014 C 
HETATM   15  C18 UNL     1      -1.792   9.898  15.500  1.00  0.00    -0.002 C 
HETATM   16  C19 UNL     1      -2.618   8.626  15.828  1.00  0.00     0.019 C 
HETATM   17  C20 UNL     1      -1.787  10.899  16.709  1.00  0.00     0.034 C 
HETATM   18  C35 UNL     1      -0.672  10.307  17.638  1.00  0.00     0.012 C 
HETATM   19  C36 UNL     1       0.143   9.297  16.812  1.00  0.00     0.044 C 
HETATM   20  C37 UNL     1      -0.257   9.607  15.373  1.00  0.00     0.089 C 
ENDROOT
BRANCH  17  21
HETATM   21  C21 UNL     1      -3.109  11.259  17.479  1.00  0.00     0.087 C 
HETATM   22  C22 UNL     1      -3.134  10.475  18.813  1.00  0.00     0.049 C 
BRANCH  21  23
HETATM   23  O4  UNL     1      -4.248  10.831  16.725  1.00  0.00    -0.387 OA
HETATM   24  H34 UNL     1      -4.327   9.865  16.794  1.00  0.00     0.210 HD
ENDBRANCH  21  23
BRANCH  21  25
HETATM   25  C23 UNL     1      -3.242  12.791  17.758  1.00  0.00     0.181 C 
BRANCH  25  26
HETATM   26  O5  UNL     1      -1.936  13.362  17.961  1.00  0.00    -0.390 OA
HETATM   27  H36 UNL     1      -2.108  14.263  18.304  1.00  0.00     0.210 HD
ENDBRANCH  25  26
BRANCH  25  28
HETATM   28  C24 UNL     1      -4.098  13.183  18.981  1.00  0.00     0.158 C 
HETATM   29  O6  UNL     1      -3.386  14.183  19.754  1.00  0.00    -0.375 OA
HETATM   30  C25 UNL     1      -4.339  14.724  20.697  1.00  0.00     0.150 C 
HETATM   31  C27 UNL     1      -5.755  14.408  20.153  1.00  0.00     0.027 C 
HETATM   32  C33 UNL     1      -5.469  13.814  18.760  1.00  0.00     0.020 C 
HETATM   33  C34 UNL     1      -5.476  14.932  17.708  1.00  0.00     0.013 C 
BRANCH  30  34
HETATM   34  C26 UNL     1      -4.065  16.218  20.881  1.00  0.00     0.196 C 
BRANCH  34  35
HETATM   35  O7  UNL     1      -3.233  16.713  19.839  1.00  0.00    -0.398 OA
HETATM   36  H41 UNL     1      -3.134  17.669  19.988  1.00  0.00     0.209 HD
ENDBRANCH  34  35
ENDBRANCH  30  34
BRANCH  31  37
HETATM   37  C28 UNL     1      -6.514  13.422  21.072  1.00  0.00    -0.007 C 
HETATM   38  C29 UNL     1      -6.430  13.781  22.558  1.00  0.00     0.005 C 
HETATM   39  C30 UNL     1      -7.535  12.948  23.191  1.00  0.00     0.000 C 
HETATM   40  C31 UNL     1      -8.627  12.844  22.130  1.00  0.00     0.000 C 
HETATM   41  C32 UNL     1      -8.029  13.403  20.841  1.00  0.00     0.005 C 
ENDBRANCH  31  37
ENDBRANCH  25  28
ENDBRANCH  21  25
ENDBRANCH  17  21
BRANCH  20  42
HETATM   42  O8  UNL     1       0.459  10.805  15.028  1.00  0.00    -0.384 OA
HETATM   43  H60 UNL     1       1.403  10.579  15.000  1.00  0.00     0.211 HD
ENDBRANCH  20  42
BRANCH   1  44
HETATM   44  O2  UNL     1       2.302   5.418   9.460  1.00  0.00    -0.386 OA
BRANCH  44  45
HETATM   45  C4  UNL     1       2.968   6.195   8.465  1.00  0.00     0.170 C 
BRANCH  45  46
HETATM   46  C3  UNL     1       2.549   5.702   7.087  1.00  0.00     0.052 C 
BRANCH  46  47
HETATM   47  C2  UNL     1       3.337   4.463   6.666  1.00  0.00     0.169 C 
BRANCH  47  48
HETATM   48  O1  UNL     1       3.753   3.703   7.803  1.00  0.00    -0.396 OA
HETATM   49  C1  UNL     1       5.002   3.052   7.607  1.00  0.00     0.201 C 
ENDBRANCH  47  48
ENDBRANCH  46  47
ENDBRANCH  45  46
ENDBRANCH  44  45
ENDBRANCH   1  44
TORSDOF 14
ENDMDL
