MODEL 1
REMARK minimizedAffinity -6.76424837
REMARK CNNscore 0.630156457
REMARK CNNaffinity 6.62170935
REMARK  11 active torsions:
REMARK  status: ('A' for Active; 'I' for Inactive)
REMARK    1  A    between atoms: C2_2  and  C3_3 
REMARK    2  A    between atoms: C2_2  and  C4_5 
REMARK    3  A    between atoms: C3_3  and  O1_4 
REMARK    4  A    between atoms: C13_14  and  C14_15 
REMARK    5  A    between atoms: C14_15  and  C16_17 
REMARK    6  A    between atoms: C16_17  and  C17_18 
REMARK    7  A    between atoms: C17_18  and  C18_19 
REMARK    8  A    between atoms: C27_28  and  C28_29 
REMARK    9  A    between atoms: C28_29  and  C29_30 
REMARK   10  A    between atoms: C29_30  and  C30_31 
REMARK   11  A    between atoms: C30_31  and  O3_33 
ROOT
HETATM    1  C4  UNL     1       4.897  12.014  21.019  1.00  0.00     0.025 C 
HETATM    2  C5  UNL     1       5.088  12.411  19.545  1.00  0.00     0.010 C 
HETATM    3  C6  UNL     1       4.152  11.630  18.638  1.00  0.00     0.007 C 
HETATM    4  C7  UNL     1       2.712  12.101  18.871  1.00  0.00     0.004 C 
HETATM    5  C8  UNL     1       2.287  11.893  20.349  1.00  0.00    -0.027 A 
HETATM    6  C9  UNL     1       0.994  11.086  20.589  1.00  0.00     0.011 C 
HETATM    7  C10 UNL     1      -0.138  11.182  19.551  1.00  0.00     0.011 C 
HETATM    8  C11 UNL     1       0.238  11.935  18.273  1.00  0.00    -0.032 C 
HETATM    9  C12 UNL     1       0.089  13.451  18.561  1.00  0.00     0.016 C 
HETATM   10  C13 UNL     1      -0.577  11.533  17.003  1.00  0.00    -0.002 C 
HETATM   11  C22 UNL     1       0.384  11.825  15.825  1.00  0.00     0.006 C 
HETATM   12  C23 UNL     1       1.773  12.083  16.439  1.00  0.00     0.011 C 
HETATM   13  C24 UNL     1       1.693  11.503  17.865  1.00  0.00    -0.032 C 
HETATM   14  C25 UNL     1       1.912   9.961  17.735  1.00  0.00     0.016 C 
HETATM   15  C26 UNL     1       2.492  13.072  21.281  1.00  0.00     0.022 A 
HETATM   16  C27 UNL     1       3.410  11.890  21.458  1.00  0.00    -0.024 A 
ENDROOT
BRANCH  10  17
HETATM   17  C14 UNL     1      -2.074  11.918  16.826  1.00  0.00    -0.014 C 
HETATM   18  C15 UNL     1      -2.896  11.292  17.973  1.00  0.00     0.010 C 
BRANCH  17  19
HETATM   19  C16 UNL     1      -2.827  11.693  15.493  1.00  0.00     0.008 C 
BRANCH  19  20
HETATM   20  C17 UNL     1      -2.914  10.265  14.952  1.00  0.00     0.028 C 
BRANCH  20  21
HETATM   21  C18 UNL     1      -4.290   9.693  15.169  1.00  0.00    -0.025 C 
HETATM   22  C19 UNL     1      -4.969   8.844  14.370  1.00  0.00    -0.091 C 
HETATM   23  C20 UNL     1      -6.359   8.394  14.738  1.00  0.00     0.042 C 
HETATM   24  C21 UNL     1      -4.450   8.256  13.088  1.00  0.00     0.042 C 
ENDBRANCH  20  21
ENDBRANCH  19  20
ENDBRANCH  17  19
ENDBRANCH  10  17
BRANCH  16  25
HETATM   25  C28 UNL     1       3.202  10.928  22.647  1.00  0.00     0.021 C 
BRANCH  25  26
HETATM   26  C29 UNL     1       3.574   9.468  22.419  1.00  0.00     0.111 C 
BRANCH  26  27
HETATM   27  C30 UNL     1       2.504   8.522  22.879  1.00  0.00     0.139 C 
HETATM   28  O2  UNL     1       1.901   7.708  22.200  1.00  0.00    -0.650 OA
BRANCH  27  29
HETATM   29  O3  UNL     1       2.268   8.620  24.205  1.00  0.00    -0.776 OA
HETATM   30  H48 UNL     1       1.540   7.977  24.352  1.00  0.00     0.167 HD
ENDBRANCH  27  29
ENDBRANCH  26  27
ENDBRANCH  25  26
ENDBRANCH  16  25
BRANCH   1  31
HETATM   31  C2  UNL     1       5.829  12.859  21.898  1.00  0.00    -0.061 C 
HETATM   32  C1  UNL     1       6.399  12.319  22.995  1.00  0.00     0.017 C 
BRANCH  31  33
HETATM   33  C3  UNL     1       6.205  14.259  21.476  1.00  0.00     0.198 C 
BRANCH  33  34
HETATM   34  O1  UNL     1       7.590  14.358  21.206  1.00  0.00    -0.397 OA
HETATM   35  H5  UNL     1       7.828  13.609  20.629  1.00  0.00     0.209 HD
ENDBRANCH  33  34
ENDBRANCH  31  33
ENDBRANCH   1  31
TORSDOF 11
ENDMDL
