MODEL 1
REMARK minimizedAffinity -9.48696041
REMARK  8 active torsions:
REMARK  status: ('A' for Active; 'I' for Inactive)
REMARK    1  A    between atoms: C2_2  and  C4_4 
REMARK    2  A    between atoms: C4_4  and  O1_5 
REMARK    3  A    between atoms: C4_4  and  C5_6 
REMARK    4  A    between atoms: C5_6  and  C6_7 
REMARK    5  A    between atoms: C6_7  and  C7_8 
REMARK    6  A    between atoms: C7_8  and  C9_10 
REMARK    7  A    between atoms: C12_13  and  C13_14 
REMARK    8  A    between atoms: C13_14  and  O3_16 
ROOT
HETATM    1  C9  UNL     1      -1.620  49.349 -18.398  1.00  0.00    -0.001 C 
HETATM    2  C10 UNL     1      -2.948  48.540 -18.519  1.00  0.00     0.007 C 
HETATM    3  C11 UNL     1      -3.386  48.575 -19.992  1.00  0.00     0.022 C 
HETATM    4  C12 UNL     1      -2.153  49.109 -20.754  1.00  0.00     0.057 C 
HETATM    5  C14 UNL     1      -2.471  49.803 -22.102  1.00  0.00     0.014 C 
HETATM    6  C15 UNL     1      -2.942  48.866 -23.222  1.00  0.00     0.007 C 
HETATM    7  C16 UNL     1      -3.333  49.681 -24.456  1.00  0.00     0.007 C 
HETATM    8  C17 UNL     1      -2.080  50.298 -25.092  1.00  0.00     0.010 C 
HETATM    9  C18 UNL     1      -2.340  51.162 -26.367  1.00  0.00     0.018 C 
HETATM   10  C19 UNL     1      -2.932  50.294 -27.493  1.00  0.00     0.023 C 
HETATM   11  C20 UNL     1      -3.271  52.360 -26.123  1.00  0.00     0.023 C 
HETATM   12  C21 UNL     1      -0.998  51.718 -26.873  1.00  0.00     0.135 C 
HETATM   13  O4  UNL     1      -0.936  52.482 -27.838  1.00  0.00    -0.297 OA
HETATM   14  C22 UNL     1       0.260  51.240 -26.191  1.00  0.00     0.080 C 
HETATM   15  C23 UNL     1       0.176  51.406 -24.679  1.00  0.00     0.018 C 
HETATM   16  C24 UNL     1      -1.191  51.048 -24.094  1.00  0.00    -0.026 A 
HETATM   17  C25 UNL     1      -1.782  52.063 -23.141  1.00  0.00     0.021 A 
HETATM   18  C26 UNL     1      -1.330  50.734 -22.576  1.00  0.00    -0.027 A 
HETATM   19  C27 UNL     1      -0.057  50.719 -21.736  1.00  0.00     0.011 C 
HETATM   20  C28 UNL     1      -0.252  50.721 -20.209  1.00  0.00     0.012 C 
HETATM   21  C29 UNL     1      -1.611  50.177 -19.727  1.00  0.00    -0.022 C 
HETATM   22  C30 UNL     1      -2.554  51.412 -19.555  1.00  0.00     0.017 C 
ENDROOT
BRANCH   1  23
HETATM   23  C7  UNL     1      -1.499  50.072 -17.020  1.00  0.00    -0.014 C 
HETATM   24  C8  UNL     1      -2.852  50.579 -16.512  1.00  0.00     0.010 C 
BRANCH  23  25
HETATM   25  C6  UNL     1      -0.485  51.247 -17.114  1.00  0.00     0.007 C 
BRANCH  25  26
HETATM   26  C5  UNL     1       0.920  50.930 -16.569  1.00  0.00     0.036 C 
BRANCH  26  27
HETATM   27  C4  UNL     1       1.512  52.030 -15.666  1.00  0.00     0.146 C 
BRANCH  27  28
HETATM   28  C2  UNL     1       2.963  51.765 -15.282  1.00  0.00    -0.065 C 
HETATM   29  C1  UNL     1       3.349  50.966 -14.270  1.00  0.00     0.016 C 
HETATM   30  C3  UNL     1       4.005  52.415 -16.159  1.00  0.00     0.045 C 
ENDBRANCH  27  28
BRANCH  27  31
HETATM   31  O1  UNL     1       1.402  53.283 -16.340  1.00  0.00    -0.391 OA
HETATM   32  H7  UNL     1       1.892  53.198 -17.176  1.00  0.00     0.210 HD
ENDBRANCH  27  31
ENDBRANCH  26  27
ENDBRANCH  25  26
ENDBRANCH  23  25
ENDBRANCH   1  23
BRANCH   4  33
HETATM   33  C13 UNL     1      -1.194  47.906 -20.961  1.00  0.00     0.149 C 
HETATM   34  O2  UNL     1       0.015  47.874 -20.803  1.00  0.00    -0.649 OA
BRANCH  33  35
HETATM   35  O3  UNL     1      -1.814  46.777 -21.363  1.00  0.00    -0.776 OA
HETATM   36  H21 UNL     1      -1.087  46.121 -21.429  1.00  0.00     0.167 HD
ENDBRANCH  33  35
ENDBRANCH   4  33
TORSDOF 8
ENDMDL
