MODEL 1
REMARK minimizedAffinity -5.76190281
REMARK CNNscore 0.525861561
REMARK CNNaffinity 5.67854071
REMARK  11 active torsions:
REMARK  status: ('A' for Active; 'I' for Inactive)
REMARK    1  A    between atoms: C2_2  and  O1_3 
REMARK    2  A    between atoms: O1_3  and  C3_4 
REMARK    3  A    between atoms: C3_4  and  C4_6 
REMARK    4  A    between atoms: N1_9  and  C7_10 
REMARK    5  A    between atoms: C7_10  and  C8_11 
REMARK    6  A    between atoms: C8_11  and  N2_12 
REMARK    7  A    between atoms: C15_20  and  C16_21 
REMARK    8  A    between atoms: C16_21  and  O5_23 
REMARK    9  A    between atoms: O5_23  and  C17_24 
REMARK   10  A    between atoms: C19_26  and  C20_27 
REMARK   11  A    between atoms: C25_32  and  C26_33 
ROOT
HETATM    1  C4  UNL     1       2.776  53.087  -9.510  1.00  0.00     0.052 A 
HETATM    2  C5  UNL     1       2.204  52.794 -10.701  1.00  0.00     0.021 A 
HETATM    3  C6  UNL     1       2.931  51.925 -11.714  1.00  0.00     0.069 C 
HETATM    4  N1  UNL     1       0.908  53.294 -11.033  1.00  0.00    -0.351 N 
HETATM    5  C13 UNL     1       0.173  54.053 -10.068  1.00  0.00     0.021 A 
HETATM    6  C14 UNL     1      -1.242  54.488 -10.419  1.00  0.00     0.069 C 
HETATM    7  C15 UNL     1       0.721  54.380  -8.871  1.00  0.00     0.052 A 
HETATM    8  C19 UNL     1       2.134  53.983  -8.475  1.00  0.00     0.101 A 
ENDROOT
BRANCH   8   9
HETATM    9  C20 UNL     1       2.996  55.231  -8.186  1.00  0.00    -0.030 A 
HETATM   10  C21 UNL     1       3.410  55.472  -6.856  1.00  0.00     0.009 A 
HETATM   11  C22 UNL     1       4.196  56.575  -6.528  1.00  0.00     0.001 A 
HETATM   12  C23 UNL     1       4.580  57.470  -7.517  1.00  0.00     0.001 A 
HETATM   13  C24 UNL     1       4.172  57.265  -8.835  1.00  0.00     0.017 A 
HETATM   14  C25 UNL     1       3.377  56.155  -9.193  1.00  0.00     0.055 A 
BRANCH  14  15
HETATM   15  C26 UNL     1       2.939  56.027 -10.638  1.00  0.00     0.418 C 
HETATM   16  F1  UNL     1       3.461  54.925 -11.240  1.00  0.00    -0.166 F 
HETATM   17  F2  UNL     1       3.310  57.086 -11.406  1.00  0.00    -0.166 F 
HETATM   18  F3  UNL     1       1.588  55.923 -10.793  1.00  0.00    -0.166 F 
ENDBRANCH  14  15
ENDBRANCH   8   9
BRANCH   1  19
HETATM   19  C3  UNL     1       4.032  52.424  -9.106  1.00  0.00     0.292 C 
HETATM   20  O2  UNL     1       4.074  51.483  -8.330  1.00  0.00    -0.259 OA
BRANCH  19  21
HETATM   21  O1  UNL     1       5.072  52.988  -9.763  1.00  0.00    -0.318 OA
BRANCH  21  22
HETATM   22  C2  UNL     1       6.265  53.174  -8.989  1.00  0.00     0.174 C 
HETATM   23  C1  UNL     1       6.686  54.632  -9.022  1.00  0.00     0.034 C 
ENDBRANCH  21  22
ENDBRANCH  19  21
ENDBRANCH   1  19
BRANCH   7  24
HETATM   24  C16 UNL     1      -0.007  55.231  -7.898  1.00  0.00     0.292 C 
HETATM   25  O4  UNL     1      -0.476  56.329  -8.155  1.00  0.00    -0.259 OA
BRANCH  24  26
HETATM   26  O5  UNL     1      -0.081  54.588  -6.708  1.00  0.00    -0.318 OA
BRANCH  26  27
HETATM   27  C17 UNL     1      -1.190  53.688  -6.561  1.00  0.00     0.174 C 
HETATM   28  C18 UNL     1      -1.732  53.716  -5.141  1.00  0.00     0.034 C 
ENDBRANCH  26  27
ENDBRANCH  24  26
ENDBRANCH   7  24
BRANCH   4  29
HETATM   29  C7  UNL     1       0.295  52.970 -12.358  1.00  0.00     0.159 C 
BRANCH  29  30
HETATM   30  C8  UNL     1      -0.312  51.546 -12.376  1.00  0.00     0.292 C 
BRANCH  30  31
HETATM   31  N2  UNL     1      -1.592  51.469 -11.647  1.00  0.00     0.094 N 
HETATM   32  C9  UNL     1      -1.594  50.328 -10.706  1.00  0.00     0.298 C 
HETATM   33  C10 UNL     1      -3.018  49.991 -10.243  1.00  0.00     0.198 C 
HETATM   34  O3  UNL     1      -3.869  49.558 -11.313  1.00  0.00    -0.388 OA
HETATM   35  C11 UNL     1      -3.440  50.023 -12.596  1.00  0.00     0.198 C 
HETATM   36  C12 UNL     1      -2.767  51.406 -12.546  1.00  0.00     0.298 C 
ENDBRANCH  30  31
ENDBRANCH  29  30
ENDBRANCH   4  29
TORSDOF 11
ENDMDL
