MODEL 1
REMARK minimizedAffinity -9.26818657
REMARK  4 active torsions:
REMARK  status: ('A' for Active; 'I' for Inactive)
REMARK    1  A    between atoms: C4_4  and  C5_5 
REMARK    2  A    between atoms: C5_5  and  C6_6 
REMARK    3  A    between atoms: C6_6  and  C7_7 
REMARK    4  A    between atoms: C7_7  and  C9_9 
ROOT
HETATM    1  C9  UNL     1      -2.628   7.980  14.889  1.00  0.00    -0.002 C 
HETATM    2  C10 UNL     1      -2.144   9.399  15.274  1.00  0.00     0.007 C 
HETATM    3  C11 UNL     1      -0.766   9.594  14.599  1.00  0.00     0.015 C 
HETATM    4  C12 UNL     1      -0.338   8.177  14.151  1.00  0.00    -0.013 C 
HETATM    5  C13 UNL     1       0.295   7.497  15.408  1.00  0.00     0.021 C 
HETATM    6  C14 UNL     1       0.701   8.002  13.046  1.00  0.00    -0.070 C 
HETATM    7  C15 UNL     1       1.525   8.995  12.674  1.00  0.00    -0.022 C 
HETATM    8  C16 UNL     1       2.688   8.825  11.747  1.00  0.00     0.035 C 
HETATM    9  C17 UNL     1       3.062   7.345  11.468  1.00  0.00     0.032 C 
HETATM   10  C18 UNL     1       4.304   7.213  10.495  1.00  0.00     0.068 C 
HETATM   11  C19 UNL     1       5.251   8.433  10.484  1.00  0.00     0.047 C 
HETATM   12  C20 UNL     1       5.191   6.023  10.931  1.00  0.00     0.047 C 
HETATM   13  O1  UNL     1       3.911   6.908   9.144  1.00  0.00    -0.310 OA
HETATM   14  C21 UNL     1       2.991   7.739   8.598  1.00  0.00     0.259 C 
HETATM   15  O2  UNL     1       3.207   8.886   8.240  1.00  0.00    -0.265 OA
HETATM   16  C22 UNL     1       1.665   7.052   8.549  1.00  0.00     0.112 C 
HETATM   17  C23 UNL     1       0.963   7.100   9.904  1.00  0.00     0.020 C 
HETATM   18  C24 UNL     1       1.738   6.517  11.140  1.00  0.00    -0.029 C 
HETATM   19  C25 UNL     1       2.041   5.025  10.870  1.00  0.00     0.016 C 
HETATM   20  C26 UNL     1       0.830   6.585  12.465  1.00  0.00     0.024 C 
HETATM   21  C27 UNL     1      -0.530   5.824  12.331  1.00  0.00     0.010 C 
HETATM   22  C28 UNL     1      -1.573   6.096  13.428  1.00  0.00     0.011 C 
HETATM   23  C29 UNL     1      -1.723   7.602  13.681  1.00  0.00    -0.029 C 
HETATM   24  C30 UNL     1      -2.210   8.281  12.367  1.00  0.00     0.016 C 
ENDROOT
BRANCH   1  25
HETATM   25  C7  UNL     1      -4.158   7.709  14.892  1.00  0.00    -0.014 C 
HETATM   26  C8  UNL     1      -4.820   8.489  13.742  1.00  0.00     0.010 C 
BRANCH  25  27
HETATM   27  C6  UNL     1      -4.726   6.274  14.988  1.00  0.00     0.008 C 
BRANCH  27  28
HETATM   28  C5  UNL     1      -5.799   5.783  14.006  1.00  0.00     0.028 C 
BRANCH  28  29
HETATM   29  C4  UNL     1      -5.314   4.769  13.008  1.00  0.00    -0.025 C 
HETATM   30  C2  UNL     1      -5.925   3.638  12.606  1.00  0.00    -0.091 C 
HETATM   31  C1  UNL     1      -7.276   3.166  13.068  1.00  0.00     0.042 C 
HETATM   32  C3  UNL     1      -5.265   2.726  11.605  1.00  0.00     0.042 C 
ENDBRANCH  28  29
ENDBRANCH  27  28
ENDBRANCH  25  27
ENDBRANCH   1  25
TORSDOF 4
ENDMDL
