MODEL 1
REMARK minimizedAffinity -9.54872227
REMARK CNNscore 0.515430331
REMARK CNNaffinity 7.25936699
REMARK  9 active torsions:
REMARK  status: ('A' for Active; 'I' for Inactive)
REMARK    1  A    between atoms: C7_8  and  O1_9 
REMARK    2  A    between atoms: O1_9  and  C8_10 
REMARK    3  A    between atoms: C8_10  and  C9_11 
REMARK       I    between atoms: C9_11  and  N1_13 
REMARK    4  A    between atoms: N1_13  and  N2_14 
REMARK    5  A    between atoms: C10_16  and  C11_17 
REMARK    6  A    between atoms: C14_20  and  O3_21 
REMARK    7  A    between atoms: C16_23  and  O4_24 
REMARK    8  A    between atoms: C25_33  and  C26_34 
REMARK    9  A    between atoms: C32_42  and  O7_43 
ROOT
HETATM    1  C11 UNL     1      -7.463   5.662  13.621  1.00  0.00     0.028 C 
HETATM    2  C12 UNL     1      -6.657   4.590  14.411  1.00  0.00     0.021 C 
HETATM    3  C13 UNL     1      -5.623   3.865  13.535  1.00  0.00     0.033 C 
HETATM    4  C14 UNL     1      -6.195   3.302  12.237  1.00  0.00     0.121 C 
HETATM    5  C15 UNL     1      -7.068   4.308  11.475  1.00  0.00     0.070 C 
HETATM    6  C16 UNL     1      -8.132   4.949  12.395  1.00  0.00     0.073 C 
HETATM    7  C17 UNL     1      -9.092   5.850  11.605  1.00  0.00     0.039 C 
HETATM    8  C18 UNL     1     -10.127   6.527  12.506  1.00  0.00     0.011 C 
HETATM    9  C19 UNL     1      -9.490   7.279  13.688  1.00  0.00     0.026 C 
HETATM   10  C20 UNL     1      -8.560   6.335  14.523  1.00  0.00     0.009 C 
HETATM   11  C21 UNL     1      -8.004   7.031  15.797  1.00  0.00     0.007 C 
HETATM   12  C22 UNL     1      -9.077   7.750  16.633  1.00  0.00     0.013 C 
HETATM   13  C23 UNL     1      -9.909   8.717  15.777  1.00  0.00    -0.005 C 
HETATM   14  C24 UNL     1      -9.002   9.886  15.310  1.00  0.00     0.019 C 
HETATM   15  C25 UNL     1     -11.197   9.283  16.456  1.00  0.00     0.028 C 
HETATM   16  C30 UNL     1     -12.087   9.672  15.235  1.00  0.00     0.013 C 
HETATM   17  C31 UNL     1     -11.548   8.893  14.017  1.00  0.00     0.040 C 
HETATM   18  C32 UNL     1     -10.549   7.906  14.614  1.00  0.00     0.070 C 
ENDROOT
BRANCH   1  19
HETATM   19  C10 UNL     1      -6.438   6.740  13.217  1.00  0.00     0.093 C 
HETATM   20  N2  UNL     1      -5.175   6.648  13.482  1.00  0.00    -0.312 N 
ATOM     21  H2  UNL     1      -4.787   5.813  13.922  1.00  0.00     0.185 HD
BRANCH  20  22
HETATM   22  N1  UNL     1      -4.374   7.711  13.152  1.00  0.00    -0.269 N 
HETATM   23  C9  UNL     1      -2.983   7.616  13.037  1.00  0.00     0.260 C 
HETATM   24  O2  UNL     1      -2.316   6.643  13.384  1.00  0.00    -0.269 OA
HETATM   25  H9  UNL     1      -4.842   8.383  12.553  1.00  0.00     0.190 HD
BRANCH  23  26
HETATM   26  C8  UNL     1      -2.369   8.871  12.406  1.00  0.00     0.280 C 
BRANCH  26  27
HETATM   27  O1  UNL     1      -0.952   8.891  12.357  1.00  0.00    -0.342 OA
BRANCH  27  28
HETATM   28  C7  UNL     1      -0.333   8.536  11.188  1.00  0.00     0.075 A 
HETATM   29  C2  UNL     1       0.822   7.739  11.328  1.00  0.00    -0.027 A 
HETATM   30  C1  UNL     1       1.326   7.343  12.687  1.00  0.00     0.051 C 
HETATM   31  C3  UNL     1       1.525   7.333  10.184  1.00  0.00     0.033 A 
HETATM   32  C4  UNL     1       1.074   7.698   8.919  1.00  0.00     0.034 A 
HETATM   33 CL1  UNL     1       1.939   7.190   7.525  1.00  0.00    -0.084 Cl
HETATM   34  C5  UNL     1      -0.078   8.466   8.779  1.00  0.00     0.026 A 
HETATM   35  C6  UNL     1      -0.787   8.877   9.912  1.00  0.00     0.039 A 
ENDBRANCH  27  28
ENDBRANCH  26  27
ENDBRANCH  23  26
ENDBRANCH  20  22
ENDBRANCH   1  19
BRANCH   6  36
HETATM   36  O4  UNL     1      -8.935   3.826  12.844  1.00  0.00    -0.389 OA
HETATM   37  H19 UNL     1      -9.531   4.113  13.571  1.00  0.00     0.210 HD
ENDBRANCH   6  36
BRANCH   4  38
HETATM   38  O3  UNL     1      -6.939   2.124  12.542  1.00  0.00    -0.395 OA
HETATM   39  H16 UNL     1      -7.869   2.408  12.685  1.00  0.00     0.210 HD
ENDBRANCH   4  38
BRANCH  18  40
HETATM   40  O7  UNL     1     -11.322   6.822  15.176  1.00  0.00    -0.389 OA
HETATM   41  H41 UNL     1     -11.989   6.540  14.526  1.00  0.00     0.210 HD
ENDBRANCH  18  40
BRANCH  15  42
HETATM   42  C26 UNL     1     -11.028  10.343  17.509  1.00  0.00    -0.045 A 
HETATM   43  C27 UNL     1     -11.124  10.242  18.835  1.00  0.00     0.087 A 
HETATM   44  C28 UNL     1     -10.812  11.552  19.398  1.00  0.00     0.283 A 
HETATM   45  O5  UNL     1     -10.849  11.825  20.581  1.00  0.00    -0.260 OA
HETATM   46  O6  UNL     1     -10.498  12.405  18.393  1.00  0.00    -0.314 OA
HETATM   47  C29 UNL     1     -10.622  11.724  17.146  1.00  0.00     0.213 A 
ENDBRANCH  15  42
TORSDOF 9
ENDMDL
