MODEL 1
REMARK minimizedAffinity -9.40981483
REMARK  4 active torsions:
REMARK  status: ('A' for Active; 'I' for Inactive)
REMARK    1  A    between atoms: C2_2  and  C4_4 
REMARK    2  A    between atoms: C4_4  and  C5_5 
REMARK    3  A    between atoms: C5_5  and  O1_6 
REMARK    4  A    between atoms: C8_9  and  C9_10 
ROOT
HETATM    1  C9  UNL     1      -5.621   6.607  15.175  1.00  0.00     0.001 C 
HETATM    2  C10 UNL     1      -5.976   5.358  14.323  1.00  0.00     0.007 C 
HETATM    3  C11 UNL     1      -4.802   5.114  13.359  1.00  0.00     0.011 C 
HETATM    4  C12 UNL     1      -3.643   5.958  13.921  1.00  0.00    -0.032 C 
HETATM    5  C13 UNL     1      -2.988   5.108  15.055  1.00  0.00     0.016 C 
HETATM    6  C14 UNL     1      -2.579   6.364  12.867  1.00  0.00     0.004 C 
HETATM    7  C15 UNL     1      -1.709   5.203  12.370  1.00  0.00     0.007 C 
HETATM    8  C16 UNL     1      -0.740   5.689  11.293  1.00  0.00     0.007 C 
HETATM    9  C17 UNL     1       0.315   6.613  11.916  1.00  0.00     0.010 C 
HETATM   10  C18 UNL     1       1.384   7.158  10.916  1.00  0.00     0.018 C 
HETATM   11  C19 UNL     1       0.782   7.933   9.733  1.00  0.00     0.023 C 
HETATM   12  C20 UNL     1       2.242   6.003  10.368  1.00  0.00     0.023 C 
HETATM   13  C21 UNL     1       2.334   8.108  11.662  1.00  0.00     0.135 C 
HETATM   14  O2  UNL     1       3.223   8.733  11.080  1.00  0.00    -0.297 OA
HETATM   15  C22 UNL     1       2.202   8.184  13.162  1.00  0.00     0.080 C 
HETATM   16  C23 UNL     1       0.771   8.515  13.560  1.00  0.00     0.018 C 
HETATM   17  C24 UNL     1      -0.285   7.745  12.761  1.00  0.00    -0.026 A 
HETATM   18  C25 UNL     1      -1.428   8.580  12.235  1.00  0.00     0.021 A 
HETATM   19  C26 UNL     1      -1.724   7.573  13.329  1.00  0.00    -0.027 A 
HETATM   20  C27 UNL     1      -1.995   8.124  14.733  1.00  0.00     0.011 C 
HETATM   21  C28 UNL     1      -3.442   8.079  15.260  1.00  0.00     0.011 C 
HETATM   22  C29 UNL     1      -4.412   7.242  14.414  1.00  0.00    -0.032 C 
HETATM   23  C30 UNL     1      -4.933   8.148  13.265  1.00  0.00     0.016 C 
ENDROOT
BRANCH   1  24
HETATM   24  C8  UNL     1      -6.863   7.415  15.647  1.00  0.00     0.014 C 
HETATM   25  C7  UNL     1      -7.316   8.461  14.623  1.00  0.00     0.010 C 
HETATM   26  C6  UNL     1      -8.426   9.340  15.199  1.00  0.00     0.041 C 
HETATM   27  C4  UNL     1      -9.595   8.536  15.817  1.00  0.00     0.085 C 
HETATM   28  O3  UNL     1      -9.064   7.523  16.705  1.00  0.00    -0.377 OA
HETATM   29  C31 UNL     1      -8.084   6.638  16.150  1.00  0.00     0.174 C 
BRANCH  27  30
HETATM   30  C2  UNL     1     -10.447   9.487  16.737  1.00  0.00     0.014 C 
HETATM   31  C1  UNL     1     -11.967   9.330  16.584  1.00  0.00     0.012 C 
HETATM   32  C3  UNL     1     -10.088  10.973  16.613  1.00  0.00     0.012 C 
ENDBRANCH  27  30
BRANCH  27  33
HETATM   33  C5  UNL     1     -10.440   7.855  14.704  1.00  0.00     0.202 C 
BRANCH  33  34
HETATM   34  O1  UNL     1     -10.959   6.596  15.130  1.00  0.00    -0.398 OA
HETATM   35  H10 UNL     1     -10.288   6.223  15.734  1.00  0.00     0.209 HD
ENDBRANCH  33  34
ENDBRANCH  27  33
ENDBRANCH   1  24
TORSDOF 4
ENDMDL
