MODEL 1
REMARK minimizedAffinity -6.65153646
REMARK CNNscore 0.231395975
REMARK CNNaffinity 6.77331114
REMARK  14 active torsions:
REMARK  status: ('A' for Active; 'I' for Inactive)
REMARK    1  A    between atoms: C2_2  and  C4_4 
REMARK    2  A    between atoms: C5_6  and  C6_7 
REMARK    3  A    between atoms: C7_8  and  C8_9 
REMARK    4  A    between atoms: C9_10  and  C10_11 
REMARK    5  A    between atoms: C10_11  and  C11_12 
REMARK    6  A    between atoms: C11_12  and  C12_13 
REMARK    7  A    between atoms: C12_13  and  C13_14 
REMARK    8  A    between atoms: C18_21  and  C19_22 
REMARK    9  A    between atoms: C19_22  and  O4_23 
REMARK   10  A    between atoms: C20_24  and  O5_25 
REMARK   11  A    between atoms: C21_26  and  O6_27 
REMARK   12  A    between atoms: C30_38  and  O9_39 
REMARK   13  A    between atoms: O9_39  and  C31_40 
REMARK   14  A    between atoms: C31_40  and  C32_41 
ROOT
HETATM    1  C4  UNL     1     -11.727   8.724  14.742  1.00  0.00     0.142 C 
HETATM    2  O1  UNL     1     -11.044   8.041  15.818  1.00  0.00    -0.308 OA
HETATM    3  C5  UNL     1      -9.898   8.834  16.065  1.00  0.00     0.306 C 
HETATM    4  O2  UNL     1      -9.488   9.381  14.827  1.00  0.00    -0.320 OA
HETATM    5  C15 UNL     1     -10.742   9.857  14.326  1.00  0.00     0.179 C 
HETATM    6  C16 UNL     1     -10.972  11.199  15.056  1.00  0.00     0.086 C 
HETATM    7  C17 UNL     1      -9.853  12.161  14.706  1.00  0.00     0.172 A 
HETATM    8  O3  UNL     1      -8.924  12.514  15.726  1.00  0.00    -0.363 OA
HETATM    9  C18 UNL     1      -9.710  13.605  15.206  1.00  0.00     0.138 A 
HETATM   10  C20 UNL     1     -10.613  14.270  16.238  1.00  0.00     0.200 C 
HETATM   11  C21 UNL     1     -11.640  13.383  16.962  1.00  0.00     0.161 C 
HETATM   12  C22 UNL     1     -12.163  14.010  18.252  1.00  0.00     0.192 C 
HETATM   13  O7  UNL     1     -12.689  15.111  18.332  1.00  0.00    -0.289 OA
HETATM   14  C23 UNL     1     -12.111  13.069  19.385  1.00  0.00    -0.016 C 
HETATM   15  C24 UNL     1     -12.638  13.386  20.728  1.00  0.00     0.052 C 
HETATM   16  C25 UNL     1     -11.510  11.971  18.920  1.00  0.00    -0.005 C 
HETATM   17  C26 UNL     1     -11.040  12.061  17.490  1.00  0.00     0.090 C 
HETATM   18  C27 UNL     1     -11.225  10.828  16.552  1.00  0.00     0.092 C 
HETATM   19  O8  UNL     1     -10.218   9.875  16.996  1.00  0.00    -0.316 OA
HETATM   20  C28 UNL     1     -12.672  10.165  16.646  1.00  0.00     0.050 C 
HETATM   21  C29 UNL     1     -12.911   9.289  17.892  1.00  0.00     0.016 C 
HETATM   22  C30 UNL     1     -13.016   9.321  15.366  1.00  0.00     0.170 C 
ENDROOT
BRANCH   3  23
HETATM   23  C6  UNL     1      -8.854   7.967  16.693  1.00  0.00     0.074 C 
HETATM   24  C7  UNL     1      -8.284   6.820  16.288  1.00  0.00     0.004 C 
BRANCH  24  25
HETATM   25  C8  UNL     1      -8.608   6.051  15.109  1.00  0.00    -0.004 C 
HETATM   26  C9  UNL     1      -8.044   6.282  13.914  1.00  0.00    -0.027 C 
BRANCH  26  27
HETATM   27  C10 UNL     1      -8.335   5.471  12.684  1.00  0.00     0.027 C 
BRANCH  27  28
HETATM   28  C11 UNL     1      -7.732   4.065  12.778  1.00  0.00     0.004 C 
BRANCH  28  29
HETATM   29  C12 UNL     1      -6.212   4.133  12.944  1.00  0.00    -0.000 C 
BRANCH  29  30
HETATM   30  C13 UNL     1      -5.443   3.404  11.839  1.00  0.00    -0.005 C 
HETATM   31  C14 UNL     1      -6.024   2.042  11.491  1.00  0.00     0.005 C 
ENDBRANCH  29  30
ENDBRANCH  28  29
ENDBRANCH  27  28
ENDBRANCH  26  27
ENDBRANCH  24  25
ENDBRANCH   3  23
BRANCH   1  32
HETATM   32  C2  UNL     1     -12.034   7.660  13.675  1.00  0.00    -0.054 C 
HETATM   33  C1  UNL     1     -11.715   7.756  12.370  1.00  0.00     0.017 C 
HETATM   34  C3  UNL     1     -12.766   6.426  14.154  1.00  0.00     0.046 C 
ENDBRANCH   1  32
BRANCH  22  35
HETATM   35  O9  UNL     1     -13.673  10.146  14.384  1.00  0.00    -0.377 OA
BRANCH  35  36
HETATM   36  C31 UNL     1     -15.101  10.051  14.412  1.00  0.00     0.207 C 
BRANCH  36  37
HETATM   37  C32 UNL     1     -15.580   8.759  13.798  1.00  0.00    -0.035 A 
HETATM   38  C33 UNL     1     -15.376   8.497  12.437  1.00  0.00     0.009 A 
HETATM   39  C34 UNL     1     -15.825   7.302  11.871  1.00  0.00     0.001 A 
HETATM   40  C35 UNL     1     -16.477   6.357  12.661  1.00  0.00     0.000 A 
HETATM   41  C36 UNL     1     -16.680   6.605  14.016  1.00  0.00     0.001 A 
HETATM   42  C37 UNL     1     -16.232   7.799  14.584  1.00  0.00     0.009 A 
ENDBRANCH  36  37
ENDBRANCH  35  36
ENDBRANCH  22  35
BRANCH  11  43
HETATM   43  O6  UNL     1     -12.813  13.230  16.139  1.00  0.00    -0.378 OA
HETATM   44  H29 UNL     1     -13.329  14.055  16.261  1.00  0.00     0.211 HD
ENDBRANCH  11  43
BRANCH   9  45
HETATM   45  C19 UNL     1      -8.901  14.543  14.332  1.00  0.00     0.207 C 
BRANCH  45  46
HETATM   46  O4  UNL     1      -7.510  14.454  14.619  1.00  0.00    -0.398 OA
HETATM   47  H26 UNL     1      -7.391  14.837  15.511  1.00  0.00     0.209 HD
ENDBRANCH  45  46
ENDBRANCH   9  45
BRANCH  10  48
HETATM   48  O5  UNL     1     -11.307  15.335  15.556  1.00  0.00    -0.389 OA
HETATM   49  H28 UNL     1     -11.932  14.903  14.944  1.00  0.00     0.210 HD
ENDBRANCH  10  48
TORSDOF 14
ENDMDL
