MODEL 1
REMARK minimizedAffinity -9.22138405
REMARK  8 active torsions:
REMARK  status: ('A' for Active; 'I' for Inactive)
REMARK    1  A    between atoms: C2_2  and  C30_33 
REMARK    2  A    between atoms: C3_3  and  C4_4 
REMARK    3  A    between atoms: C4_4  and  C5_5 
REMARK    4  A    between atoms: C5_5  and  C6_6 
REMARK    5  A    between atoms: C6_6  and  C8_8 
REMARK    6  A    between atoms: C15_15  and  O1_16 
REMARK    7  A    between atoms: C23_24  and  O2_25 
REMARK    8  A    between atoms: C30_33  and  O4_34 
ROOT
HETATM    1  C8  UNL     1       3.091   7.577  11.143  1.00  0.00    -0.002 C 
HETATM    2  C9  UNL     1       2.945   6.202  10.453  1.00  0.00     0.007 C 
HETATM    3  C10 UNL     1       1.525   5.689  10.789  1.00  0.00     0.015 C 
HETATM    4  C11 UNL     1       0.761   6.920  11.326  1.00  0.00    -0.005 C 
HETATM    5  C12 UNL     1       0.259   7.720  10.085  1.00  0.00     0.021 C 
HETATM    6  C13 UNL     1      -0.478   6.774  12.201  1.00  0.00     0.002 C 
HETATM    7  C14 UNL     1      -0.790   7.711  13.140  1.00  0.00    -0.032 C 
HETATM    8  C15 UNL     1       0.118   8.922  13.379  1.00  0.00     0.149 C 
HETATM    9  C16 UNL     1       1.446   8.985  12.588  1.00  0.00     0.047 C 
HETATM   10  C17 UNL     1       1.919   7.594  12.165  1.00  0.00    -0.026 C 
HETATM   11  C18 UNL     1       2.278   6.785  13.445  1.00  0.00     0.016 C 
HETATM   12  C19 UNL     1      -2.006   7.512  14.093  1.00  0.00    -0.013 C 
HETATM   13  C20 UNL     1      -1.448   6.630  15.238  1.00  0.00     0.021 C 
HETATM   14  C21 UNL     1      -2.586   8.813  14.688  1.00  0.00     0.017 C 
HETATM   15  C22 UNL     1      -3.792   8.616  15.609  1.00  0.00     0.033 C 
HETATM   16  C23 UNL     1      -4.705   7.435  15.265  1.00  0.00     0.126 C 
HETATM   17  C24 UNL     1      -4.625   6.948  13.796  1.00  0.00    -0.017 C 
HETATM   18  C25 UNL     1      -5.402   5.618  13.651  1.00  0.00     0.018 C 
HETATM   19  C26 UNL     1      -5.404   7.984  12.933  1.00  0.00     0.018 C 
HETATM   20  C27 UNL     1      -3.142   6.861  13.233  1.00  0.00     0.015 C 
HETATM   21  C28 UNL     1      -2.685   5.490  12.735  1.00  0.00     0.090 C 
HETATM   22  C29 UNL     1      -1.366   5.578  11.997  1.00  0.00     0.157 C 
HETATM   23  O3  UNL     1      -1.032   4.662  11.245  1.00  0.00    -0.293 OA
ENDROOT
BRANCH   1  24
HETATM   24  C6  UNL     1       4.519   8.055  11.527  1.00  0.00    -0.014 C 
HETATM   25  C7  UNL     1       5.092   8.927  10.394  1.00  0.00     0.010 C 
BRANCH  24  26
HETATM   26  C5  UNL     1       5.589   7.075  12.066  1.00  0.00     0.008 C 
BRANCH  26  27
HETATM   27  C4  UNL     1       6.971   7.565  12.514  1.00  0.00     0.028 C 
BRANCH  27  28
HETATM   28  C3  UNL     1       7.106   7.856  13.981  1.00  0.00    -0.022 C 
HETATM   29  C2  UNL     1       8.248   8.040  14.676  1.00  0.00    -0.064 C 
HETATM   30  C1  UNL     1       9.629   7.932  14.089  1.00  0.00     0.045 C 
BRANCH  29  31
HETATM   31  C30 UNL     1       8.211   8.348  16.151  1.00  0.00     0.197 C 
BRANCH  31  32
HETATM   32  O4  UNL     1       8.973   7.374  16.844  1.00  0.00    -0.397 OA
HETATM   33  H48 UNL     1       9.010   7.657  17.772  1.00  0.00     0.209 HD
ENDBRANCH  31  32
ENDBRANCH  29  31
ENDBRANCH  27  28
ENDBRANCH  26  27
ENDBRANCH  24  26
ENDBRANCH   1  24
BRANCH   8  34
HETATM   34  O1  UNL     1      -0.613  10.101  13.061  1.00  0.00    -0.391 OA
HETATM   35  H22 UNL     1      -0.062  10.860  13.319  1.00  0.00     0.210 HD
ENDBRANCH   8  34
BRANCH  16  36
HETATM   36  O2  UNL     1      -4.422   6.371  16.174  1.00  0.00    -0.395 OA
HETATM   37  H36 UNL     1      -5.209   5.803  16.227  1.00  0.00     0.210 HD
ENDBRANCH  16  36
TORSDOF 8
ENDMDL
