MODEL 1
REMARK minimizedAffinity -7.6134367
REMARK CNNscore 0.844923615
REMARK CNNaffinity 7.16370821
REMARK  6 active torsions:
REMARK  status: ('A' for Active; 'I' for Inactive)
REMARK    1  A    between atoms: C4_4  and  C5_5 
REMARK    2  A    between atoms: C5_5  and  C6_6 
REMARK    3  A    between atoms: C6_6  and  C7_7 
REMARK    4  A    between atoms: C7_7  and  C9_9 
REMARK    5  A    between atoms: C24_24  and  O1_25 
REMARK    6  A    between atoms: C27_28  and  O2_29 
ROOT
HETATM    1  C9  UNL     1       4.928  56.050  -8.341  1.00  0.00    -0.002 C 
HETATM    2  C10 UNL     1       5.779  55.164  -9.297  1.00  0.00     0.007 C 
HETATM    3  C11 UNL     1       4.802  54.345 -10.162  1.00  0.00     0.015 C 
HETATM    4  C12 UNL     1       3.437  55.021  -9.958  1.00  0.00    -0.013 C 
HETATM    5  C13 UNL     1       3.380  56.242 -10.929  1.00  0.00     0.021 C 
HETATM    6  C14 UNL     1       2.166  54.229 -10.249  1.00  0.00    -0.065 C 
HETATM    7  C15 UNL     1       1.014  54.537  -9.598  1.00  0.00    -0.068 C 
HETATM    8  C16 UNL     1       0.979  55.595  -8.492  1.00  0.00     0.036 C 
HETATM    9  C17 UNL     1       2.313  56.273  -8.105  1.00  0.00     0.015 C 
HETATM   10  C18 UNL     1       3.519  55.383  -8.427  1.00  0.00    -0.029 C 
HETATM   11  C19 UNL     1       3.480  54.134  -7.493  1.00  0.00     0.016 C 
HETATM   12  C20 UNL     1      -0.307  53.794  -9.895  1.00  0.00    -0.014 C 
HETATM   13  C21 UNL     1      -0.431  52.667  -8.838  1.00  0.00     0.020 C 
HETATM   14  C22 UNL     1      -1.548  54.725  -9.793  1.00  0.00     0.016 C 
HETATM   15  C23 UNL     1      -2.856  54.044 -10.199  1.00  0.00     0.033 C 
HETATM   16  C24 UNL     1      -2.776  53.435 -11.593  1.00  0.00     0.118 C 
HETATM   17  C25 UNL     1      -1.566  52.520 -11.759  1.00  0.00     0.039 C 
HETATM   18  C26 UNL     1      -0.267  53.238 -11.355  1.00  0.00     0.029 C 
HETATM   19  C27 UNL     1       0.974  52.367 -11.581  1.00  0.00     0.127 C 
HETATM   20  C28 UNL     1       2.261  53.161 -11.316  1.00  0.00     0.067 C 
ENDROOT
BRANCH   1  21
HETATM   21  C7  UNL     1       5.606  56.237  -6.956  1.00  0.00    -0.014 C 
HETATM   22  C8  UNL     1       5.403  57.645  -6.385  1.00  0.00     0.010 C 
BRANCH  21  23
HETATM   23  C6  UNL     1       7.120  55.896  -6.969  1.00  0.00     0.008 C 
BRANCH  23  24
HETATM   24  C5  UNL     1       7.770  55.748  -5.589  1.00  0.00     0.028 C 
BRANCH  24  25
HETATM   25  C4  UNL     1       8.655  56.929  -5.287  1.00  0.00    -0.025 C 
HETATM   26  C2  UNL     1       9.986  56.935  -5.076  1.00  0.00    -0.091 C 
HETATM   27  C1  UNL     1      10.704  58.224  -4.768  1.00  0.00     0.042 C 
HETATM   28  C3  UNL     1      10.883  55.728  -5.125  1.00  0.00     0.042 C 
ENDBRANCH  24  25
ENDBRANCH  23  24
ENDBRANCH  21  23
ENDBRANCH   1  21
BRANCH  19  29
HETATM   29  O2  UNL     1       1.002  51.870 -12.921  1.00  0.00    -0.395 OA
HETATM   30  H44 UNL     1       0.972  52.632 -13.524  1.00  0.00     0.210 HD
ENDBRANCH  19  29
BRANCH  16  31
HETATM   31  O1  UNL     1      -3.970  52.709 -11.865  1.00  0.00    -0.396 OA
HETATM   32  H39 UNL     1      -4.038  51.988 -11.216  1.00  0.00     0.210 HD
ENDBRANCH  16  31
TORSDOF 6
ENDMDL
