MODEL 1
REMARK minimizedAffinity -8.53377151
REMARK CNNscore 0.421822846
REMARK CNNaffinity 7.27882576
REMARK  10 active torsions:
REMARK  status: ('A' for Active; 'I' for Inactive)
REMARK    1  A    between atoms: O1_2  and  C2_3 
REMARK    2  A    between atoms: C2_3  and  C3_5 
REMARK    3  A    between atoms: C3_5  and  C4_6 
REMARK    4  A    between atoms: C3_5  and  N1_13 
REMARK    5  A    between atoms: C4_6  and  C5_7 
REMARK       I    between atoms: N1_13  and  C11_14 
REMARK    6  A    between atoms: C11_14  and  C12_16 
REMARK    7  A    between atoms: C12_16  and  O4_17 
REMARK    8  A    between atoms: O4_17  and  N2_18 
REMARK    9  A    between atoms: C27_34  and  O5_35 
REMARK   10  A    between atoms: C27_34  and  C28_36 
ROOT
HETATM    1  N2  UNL     1       0.784  53.118 -18.903  1.00  0.00    -0.271 N 
ATOM      2  H2  UNL     1       1.415  53.914 -18.997  1.00  0.00     0.194 HD
HETATM    3  C13 UNL     1       0.714  52.368 -17.844  1.00  0.00     0.032 C 
HETATM    4  C14 UNL     1      -0.237  51.239 -17.630  1.00  0.00     0.030 C 
HETATM    5  C15 UNL     1      -0.167  50.445 -16.547  1.00  0.00    -0.069 C 
HETATM    6  C16 UNL     1      -1.052  49.215 -16.510  1.00  0.00     0.035 C 
HETATM    7  C17 UNL     1      -1.201  48.567 -15.136  1.00  0.00     0.010 C 
HETATM    8  C18 UNL     1       0.126  48.370 -14.377  1.00  0.00    -0.004 C 
HETATM    9  C19 UNL     1       1.310  49.151 -15.028  1.00  0.00     0.002 C 
HETATM   10  C20 UNL     1       2.579  49.027 -14.155  1.00  0.00     0.007 C 
HETATM   11  C21 UNL     1       2.960  47.551 -13.905  1.00  0.00     0.013 C 
HETATM   12  C22 UNL     1       1.798  46.736 -13.299  1.00  0.00    -0.002 C 
HETATM   13  C23 UNL     1       1.551  47.222 -11.843  1.00  0.00     0.019 C 
HETATM   14  C24 UNL     1       0.562  46.907 -14.229  1.00  0.00     0.002 C 
HETATM   15  C25 UNL     1      -0.430  45.886 -13.688  1.00  0.00     0.009 C 
HETATM   16  C26 UNL     1       0.448  44.699 -13.247  1.00  0.00     0.047 C 
HETATM   17  C27 UNL     1       1.928  45.181 -13.323  1.00  0.00     0.125 C 
HETATM   18  C30 UNL     1       0.890  50.600 -15.445  1.00  0.00    -0.016 C 
HETATM   19  C31 UNL     1       0.310  51.400 -14.255  1.00  0.00     0.020 C 
HETATM   20  C32 UNL     1       2.104  51.383 -16.013  1.00  0.00     0.020 C 
HETATM   21  C33 UNL     1       1.694  52.668 -16.729  1.00  0.00     0.060 C 
ENDROOT
BRANCH   1  22
HETATM   22  O4  UNL     1      -0.112  52.705 -19.903  1.00  0.00    -0.271 OA
BRANCH  22  23
HETATM   23  C12 UNL     1       0.620  52.309 -21.057  1.00  0.00     0.303 C 
BRANCH  23  24
HETATM   24  C11 UNL     1      -0.288  52.009 -22.245  1.00  0.00     0.244 C 
HETATM   25  N1  UNL     1       0.092  52.607 -23.424  1.00  0.00    -0.345 N 
HETATM   26  H12 UNL     1       0.956  53.155 -23.421  1.00  0.00     0.163 HD
HETATM   27  O3  UNL     1      -1.255  51.255 -22.165  1.00  0.00    -0.271 OA
BRANCH  25  28
HETATM   28  C3  UNL     1      -0.652  52.433 -24.671  1.00  0.00     0.188 C 
BRANCH  28  29
HETATM   29  C2  UNL     1      -0.278  53.590 -25.600  1.00  0.00     0.281 C 
HETATM   30  O2  UNL     1       0.601  54.411 -25.351  1.00  0.00    -0.263 OA
BRANCH  29  31
HETATM   31  O1  UNL     1      -1.042  53.581 -26.727  1.00  0.00    -0.325 OA
HETATM   32  C1  UNL     1      -0.307  53.804 -27.931  1.00  0.00     0.213 C 
ENDBRANCH  29  31
ENDBRANCH  28  29
BRANCH  28  33
HETATM   33  C4  UNL     1      -0.318  51.091 -25.338  1.00  0.00     0.074 C 
BRANCH  33  34
HETATM   34  C5  UNL     1      -1.549  50.293 -25.704  1.00  0.00    -0.056 A 
HETATM   35  C6  UNL     1      -2.156  49.442 -24.773  1.00  0.00     0.007 A 
HETATM   36  C7  UNL     1      -3.292  48.710 -25.125  1.00  0.00     0.001 A 
HETATM   37  C8  UNL     1      -3.827  48.822 -26.408  1.00  0.00     0.000 A 
HETATM   38  C9  UNL     1      -3.230  49.667 -27.341  1.00  0.00     0.001 A 
HETATM   39  C10 UNL     1      -2.095  50.398 -26.992  1.00  0.00     0.007 A 
ENDBRANCH  33  34
ENDBRANCH  28  33
ENDBRANCH  25  28
ENDBRANCH  23  24
ENDBRANCH  22  23
ENDBRANCH   1  22
BRANCH  17  40
HETATM   40  O5  UNL     1       2.455  44.756 -14.586  1.00  0.00    -0.381 OA
HETATM   41  H34 UNL     1       2.322  43.793 -14.656  1.00  0.00     0.211 HD
ENDBRANCH  17  40
BRANCH  17  42
HETATM   42  C28 UNL     1       2.802  44.585 -12.194  1.00  0.00     0.158 C 
HETATM   43  C29 UNL     1       2.142  43.643 -11.216  1.00  0.00     0.094 C 
HETATM   44  O6  UNL     1       4.007  44.828 -12.093  1.00  0.00    -0.295 OA
ENDBRANCH  17  42
TORSDOF 10
ENDMDL
