MODEL 1
REMARK minimizedAffinity -8.29751873
REMARK  10 active torsions:
REMARK  status: ('A' for Active; 'I' for Inactive)
REMARK    1  A    between atoms: O1_1  and  C1_2 
REMARK    2  A    between atoms: C1_2  and  C2_3 
REMARK    3  A    between atoms: C3_5  and  C4_6 
REMARK    4  A    between atoms: C4_6  and  O2_7 
REMARK    5  A    between atoms: C4_6  and  C5_8 
REMARK    6  A    between atoms: C5_8  and  C6_9 
REMARK    7  A    between atoms: C6_9  and  C7_10 
REMARK    8  A    between atoms: C7_10  and  C8_11 
REMARK    9  A    between atoms: C17_22  and  O5_23 
REMARK   10  A    between atoms: C18_24  and  O6_25 
ROOT
HETATM    1  C4  UNL     1      -4.357   3.537  11.234  1.00  0.00     0.154 C 
ENDROOT
BRANCH   1   2
HETATM    2  C3  UNL     1      -5.352   3.515  12.419  1.00  0.00     0.280 C 
HETATM    3  N1  UNL     1      -5.601   4.858  13.020  1.00  0.00     0.102 N 
HETATM    4  C2  UNL     1      -6.991   4.789  13.575  1.00  0.00     0.275 C 
HETATM    5  H5  UNL     1      -5.619   5.558  12.274  1.00  0.00     0.317 HD
HETATM    6  C18 UNL     1      -7.512   3.366  13.348  1.00  0.00     0.184 C 
HETATM    7  C17 UNL     1      -6.731   2.929  12.113  1.00  0.00     0.184 C 
BRANCH   4   8
HETATM    8  C1  UNL     1      -7.006   5.184  15.055  1.00  0.00     0.202 C 
BRANCH   8   9
HETATM    9  O1  UNL     1      -7.882   4.315  15.772  1.00  0.00    -0.399 OA
HETATM   10  H1  UNL     1      -8.707   4.310  15.247  1.00  0.00     0.209 HD
ENDBRANCH   8   9
ENDBRANCH   4   8
BRANCH   6  11
HETATM   11  O6  UNL     1      -8.912   3.337  13.097  1.00  0.00    -0.391 OA
HETATM   12  H33 UNL     1      -9.204   2.415  13.211  1.00  0.00     0.210 HD
ENDBRANCH   6  11
BRANCH   7  13
HETATM   13  O5  UNL     1      -6.707   1.513  11.994  1.00  0.00    -0.391 OA
HETATM   14  H31 UNL     1      -7.571   1.242  11.637  1.00  0.00     0.210 HD
ENDBRANCH   7  13
ENDBRANCH   1   2
BRANCH   1  15
HETATM   15  O2  UNL     1      -4.977   2.839  10.142  1.00  0.00    -0.393 OA
HETATM   16  H8  UNL     1      -5.510   2.124  10.538  1.00  0.00     0.210 HD
ENDBRANCH   1  15
BRANCH   1  17
HETATM   17  C5  UNL     1      -2.996   2.875  11.509  1.00  0.00     0.034 C 
BRANCH  17  18
HETATM   18  C6  UNL     1      -1.789   3.702  11.034  1.00  0.00     0.005 C 
BRANCH  18  19
HETATM   19  C7  UNL     1      -1.488   4.935  11.894  1.00  0.00     0.032 C 
BRANCH  19  20
HETATM   20  C8  UNL     1      -0.008   5.347  11.899  1.00  0.00     0.125 C 
HETATM   21  C9  UNL     1       0.287   6.488  12.872  1.00  0.00     0.032 C 
HETATM   22  C10 UNL     1       1.784   6.793  12.902  1.00  0.00     0.008 C 
HETATM   23  C11 UNL     1       2.473   6.416  11.589  1.00  0.00     0.068 C 
HETATM   24  C12 UNL     1       1.509   6.513  10.395  1.00  0.00     0.164 C 
HETATM   25  C13 UNL     1       2.222   6.088   9.090  1.00  0.00     0.068 C 
HETATM   26  O3  UNL     1       1.058   7.876  10.329  1.00  0.00    -0.355 OA
HETATM   27  O4  UNL     1       0.388   5.637  10.556  1.00  0.00    -0.350 OA
HETATM   28  C14 UNL     1       2.835   7.282   8.372  1.00  0.00     0.007 C 
HETATM   29  C15 UNL     1       1.764   8.329   8.070  1.00  0.00     0.026 C 
HETATM   30  C16 UNL     1       0.590   8.244   9.039  1.00  0.00     0.171 C 
ENDBRANCH  19  20
ENDBRANCH  18  19
ENDBRANCH  17  18
ENDBRANCH   1  17
TORSDOF 10
ENDMDL
