MODEL 1
REMARK minimizedAffinity -9.41092777
REMARK CNNscore 0.346729785
REMARK CNNaffinity 7.87099981
REMARK  13 active torsions:
REMARK  status: ('A' for Active; 'I' for Inactive)
REMARK    1  A    between atoms: O1_2  and  C2_3 
REMARK    2  A    between atoms: C2_3  and  C3_5 
REMARK    3  A    between atoms: C19_25  and  C20_26 
REMARK    4  A    between atoms: C20_26  and  C21_27 
REMARK    5  A    between atoms: C21_27  and  C22_28 
REMARK    6  A    between atoms: C22_28  and  O7_29 
REMARK    7  A    between atoms: C24_32  and  C25_33 
REMARK    8  A    between atoms: C25_33  and  C27_35 
REMARK    9  A    between atoms: C38_46  and  O8_47 
REMARK   10  A    between atoms: C39_48  and  O9_49 
REMARK   11  A    between atoms: C40_50  and  C41_51 
REMARK   12  A    between atoms: C41_51  and  C42_52 
REMARK   13  A    between atoms: C42_52  and  O11_54 
ROOT
HETATM    1  C3  UNL     1      -9.060  45.629 -20.008  1.00  0.00     0.019 C 
HETATM    2  C4  UNL     1      -7.770  45.275 -19.842  1.00  0.00    -0.006 C 
HETATM    3  C5  UNL     1      -6.589  46.218 -19.930  1.00  0.00     0.043 C 
HETATM    4  C6  UNL     1      -6.024  46.395 -18.479  1.00  0.00    -0.001 C 
HETATM    5  C7  UNL     1      -7.071  46.889 -17.453  1.00  0.00     0.032 C 
HETATM    6  C8  UNL     1      -7.701  48.229 -17.659  1.00  0.00    -0.030 C 
HETATM    7  C9  UNL     1      -8.230  48.716 -18.793  1.00  0.00    -0.023 C 
HETATM    8  C10 UNL     1      -8.302  48.086 -20.168  1.00  0.00     0.047 C 
HETATM    9  C11 UNL     1      -6.931  47.550 -20.647  1.00  0.00     0.141 C 
HETATM   10  O3  UNL     1      -7.066  47.325 -22.056  1.00  0.00    -0.351 OA
HETATM   11  C12 UNL     1      -6.270  48.121 -22.953  1.00  0.00     0.297 C 
HETATM   12  O4  UNL     1      -4.995  47.529 -23.231  1.00  0.00    -0.347 OA
HETATM   13  C13 UNL     1      -3.827  48.351 -23.351  1.00  0.00     0.191 C 
HETATM   14  C14 UNL     1      -2.833  47.904 -22.252  1.00  0.00     0.203 C 
HETATM   15  O5  UNL     1      -3.520  47.843 -21.006  1.00  0.00    -0.388 OA
HETATM   16  C15 UNL     1      -2.687  47.499 -19.907  1.00  0.00     0.167 C 
HETATM   17  C16 UNL     1      -3.493  46.577 -19.000  1.00  0.00     0.027 C 
HETATM   18  C17 UNL     1      -4.741  47.258 -18.400  1.00  0.00     0.007 C 
HETATM   19  C18 UNL     1      -4.004  49.901 -23.565  1.00  0.00     0.148 C 
HETATM   20  O6  UNL     1      -3.124  50.262 -24.682  1.00  0.00    -0.332 OA
HETATM   21  C19 UNL     1      -1.878  50.788 -24.406  1.00  0.00     0.075 C 
HETATM   22  C23 UNL     1      -1.576  51.287 -23.201  1.00  0.00     0.072 A 
HETATM   23  N1  UNL     1      -0.462  51.859 -22.652  1.00  0.00    -0.357 N 
HETATM   24  C24 UNL     1      -0.729  52.338 -21.370  1.00  0.00     0.014 A 
HETATM   25  C33 UNL     1      -2.002  52.047 -21.016  1.00  0.00     0.039 A 
HETATM   26  C34 UNL     1      -2.580  51.346 -22.148  1.00  0.00     0.001 A 
HETATM   27  C35 UNL     1      -3.765  50.721 -22.289  1.00  0.00    -0.027 C 
HETATM   28  C36 UNL     1      -4.832  50.683 -21.226  1.00  0.00     0.041 C 
HETATM   29  C37 UNL     1      -6.250  50.560 -21.773  1.00  0.00     0.050 C 
HETATM   30  C38 UNL     1      -6.438  49.679 -23.028  1.00  0.00     0.136 C 
HETATM   31  C39 UNL     1      -5.435  50.162 -24.091  1.00  0.00     0.199 C 
HETATM   32  C40 UNL     1      -9.456  47.050 -20.409  1.00  0.00     0.044 C 
HETATM   33  H30 UNL     1       0.307  52.196 -23.215  1.00  0.00     0.166 HD
ENDROOT
BRANCH  24  34
HETATM   34  C25 UNL     1       0.352  53.003 -20.554  1.00  0.00     0.035 C 
HETATM   35  C26 UNL     1       1.707  52.395 -20.947  1.00  0.00     0.017 C 
BRANCH  34  36
HETATM   36  C27 UNL     1       0.090  52.982 -19.020  1.00  0.00    -0.005 C 
HETATM   37  C28 UNL     1       1.419  52.908 -18.234  1.00  0.00     0.005 C 
HETATM   38  C29 UNL     1       1.251  52.284 -16.853  1.00  0.00     0.000 C 
HETATM   39  C30 UNL     1       0.758  50.835 -16.945  1.00  0.00     0.000 C 
HETATM   40  C31 UNL     1      -0.133  50.582 -18.160  1.00  0.00     0.000 C 
HETATM   41  C32 UNL     1      -0.873  51.854 -18.576  1.00  0.00     0.005 C 
ENDBRANCH  34  36
ENDBRANCH  24  34
BRANCH  21  42
HETATM   42  C20 UNL     1      -0.922  50.774 -25.565  1.00  0.00     0.069 C 
BRANCH  42  43
HETATM   43  C21 UNL     1      -1.649  51.093 -26.885  1.00  0.00     0.033 C 
BRANCH  43  44
HETATM   44  C22 UNL     1      -2.441  52.392 -26.784  1.00  0.00     0.164 C 
BRANCH  44  45
HETATM   45  O7  UNL     1      -2.188  53.186 -27.943  1.00  0.00    -0.401 OA
HETATM   46  H29 UNL     1      -2.597  54.064 -27.777  1.00  0.00     0.209 HD
ENDBRANCH  44  45
ENDBRANCH  43  44
ENDBRANCH  42  43
ENDBRANCH  21  42
BRANCH  31  47
HETATM   47  O9  UNL     1      -5.686  51.552 -24.392  1.00  0.00    -0.389 OA
HETATM   48  H53 UNL     1      -6.639  51.593 -24.567  1.00  0.00     0.210 HD
ENDBRANCH  31  47
BRANCH  30  49
HETATM   49  O8  UNL     1      -7.790  49.992 -23.475  1.00  0.00    -0.382 OA
HETATM   50  H51 UNL     1      -8.026  49.362 -24.186  1.00  0.00     0.210 HD
ENDBRANCH  30  49
BRANCH  32  51
HETATM   51  C41 UNL     1     -10.791  47.633 -19.881  1.00  0.00     0.120 C 
BRANCH  51  52
HETATM   52  C42 UNL     1     -11.368  46.873 -18.712  1.00  0.00     0.140 C 
HETATM   53  O10 UNL     1     -12.397  46.215 -18.663  1.00  0.00    -0.650 OA
BRANCH  52  54
HETATM   54  O11 UNL     1     -10.610  47.023 -17.598  1.00  0.00    -0.776 OA
HETATM   55  H57 UNL     1     -11.089  46.496 -16.923  1.00  0.00     0.167 HD
ENDBRANCH  52  54
ENDBRANCH  51  52
ENDBRANCH  32  51
BRANCH   1  56
HETATM   56  C2  UNL     1     -10.017  44.493 -19.857  1.00  0.00     0.289 C 
HETATM   57  O2  UNL     1     -10.889  44.215 -20.675  1.00  0.00    -0.260 OA
BRANCH  56  58
HETATM   58  O1  UNL     1      -9.776  43.792 -18.722  1.00  0.00    -0.323 OA
HETATM   59  C1  UNL     1     -10.942  43.194 -18.151  1.00  0.00     0.213 C 
ENDBRANCH  56  58
ENDBRANCH   1  56
TORSDOF 13
ENDMDL
