MODEL 1
REMARK minimizedAffinity -9.84683418
REMARK  10 active torsions:
REMARK  status: ('A' for Active; 'I' for Inactive)
REMARK    1  A    between atoms: C2_2  and  C3_3 
REMARK    2  A    between atoms: C2_2  and  C9_11 
REMARK    3  A    between atoms: C3_3  and  C4_4 
REMARK    4  A    between atoms: C4_4  and  C5_5 
REMARK    5  A    between atoms: C5_5  and  O1_6 
REMARK    6  A    between atoms: C5_5  and  C6_7 
REMARK    7  A    between atoms: C6_7  and  O2_10 
REMARK    8  A    between atoms: C12_14  and  C13_15 
REMARK    9  A    between atoms: C13_15  and  O4_17 
REMARK   10  A    between atoms: C21_25  and  O5_26 
ROOT
HETATM    1  C9  UNL     1      -2.155  51.337 -21.454  1.00  0.00    -0.001 C 
HETATM    2  C10 UNL     1      -2.519  49.849 -21.214  1.00  0.00     0.007 C 
HETATM    3  C11 UNL     1      -1.710  49.391 -19.972  1.00  0.00     0.022 C 
HETATM    4  C12 UNL     1      -1.230  50.708 -19.322  1.00  0.00     0.057 C 
HETATM    5  C14 UNL     1      -0.013  50.647 -18.354  1.00  0.00     0.010 C 
HETATM    6  C15 UNL     1      -0.201  49.715 -17.143  1.00  0.00     0.010 C 
HETATM    7  C16 UNL     1      -0.577  50.390 -15.824  1.00  0.00     0.036 C 
HETATM    8  C17 UNL     1       0.583  51.000 -15.048  1.00  0.00    -0.067 C 
HETATM    9  C18 UNL     1       1.594  51.686 -15.639  1.00  0.00    -0.076 C 
HETATM   10  C19 UNL     1       2.783  52.213 -14.855  1.00  0.00     0.037 C 
HETATM   11  C20 UNL     1       2.936  51.647 -13.452  1.00  0.00     0.037 C 
HETATM   12  C21 UNL     1       1.595  51.624 -12.738  1.00  0.00     0.130 C 
HETATM   13  C22 UNL     1       0.545  50.762 -13.511  1.00  0.00     0.002 C 
HETATM   14  C23 UNL     1      -0.853  51.079 -12.928  1.00  0.00     0.022 C 
HETATM   15  C24 UNL     1       0.861  49.270 -13.240  1.00  0.00     0.022 C 
HETATM   16  C25 UNL     1       1.702  52.082 -17.106  1.00  0.00     0.039 C 
HETATM   17  C26 UNL     1       0.433  52.088 -17.976  1.00  0.00    -0.005 C 
HETATM   18  C27 UNL     1       0.674  52.980 -19.224  1.00  0.00     0.006 C 
HETATM   19  C28 UNL     1      -0.457  52.959 -20.267  1.00  0.00     0.011 C 
HETATM   20  C29 UNL     1      -0.848  51.520 -20.632  1.00  0.00    -0.022 C 
HETATM   21  C30 UNL     1       0.368  50.904 -21.395  1.00  0.00     0.017 C 
ENDROOT
BRANCH   1  22
HETATM   22  C2  UNL     1      -2.333  51.922 -22.883  1.00  0.00    -0.014 C 
HETATM   23  C1  UNL     1      -3.823  52.219 -23.139  1.00  0.00     0.010 C 
BRANCH  22  24
HETATM   24  C3  UNL     1      -1.718  51.241 -24.124  1.00  0.00     0.007 C 
BRANCH  24  25
HETATM   25  C4  UNL     1      -0.431  51.836 -24.686  1.00  0.00     0.035 C 
BRANCH  25  26
HETATM   26  C5  UNL     1       0.157  51.099 -25.900  1.00  0.00     0.151 C 
BRANCH  26  27
HETATM   27  O1  UNL     1      -0.968  50.592 -26.648  1.00  0.00    -0.393 OA
HETATM   28  H10 UNL     1      -0.982  51.065 -27.504  1.00  0.00     0.210 HD
ENDBRANCH  26  27
BRANCH  26  29
HETATM   29  C6  UNL     1       1.093  51.886 -26.869  1.00  0.00     0.076 C 
HETATM   30  C7  UNL     1       0.610  51.844 -28.320  1.00  0.00     0.048 C 
HETATM   31  C8  UNL     1       2.561  51.469 -26.774  1.00  0.00     0.048 C 
BRANCH  29  32
HETATM   32  O2  UNL     1       1.053  53.274 -26.469  1.00  0.00    -0.388 OA
HETATM   33  H17 UNL     1       0.126  53.487 -26.248  1.00  0.00     0.210 HD
ENDBRANCH  29  32
ENDBRANCH  26  29
ENDBRANCH  25  26
ENDBRANCH  24  25
ENDBRANCH  22  24
ENDBRANCH   1  22
BRANCH   4  34
HETATM   34  C13 UNL     1      -2.432  51.302 -18.530  1.00  0.00     0.149 C 
HETATM   35  O3  UNL     1      -2.528  51.469 -17.327  1.00  0.00    -0.649 OA
BRANCH  34  36
HETATM   36  O4  UNL     1      -3.491  51.620 -19.303  1.00  0.00    -0.776 OA
HETATM   37  H23 UNL     1      -4.152  51.954 -18.659  1.00  0.00     0.167 HD
ENDBRANCH  34  36
ENDBRANCH   4  34
BRANCH  12  38
HETATM   38  O5  UNL     1       1.136  52.968 -12.556  1.00  0.00    -0.394 OA
HETATM   39  H34 UNL     1       1.818  53.447 -12.056  1.00  0.00     0.210 HD
ENDBRANCH  12  38
TORSDOF 10
ENDMDL
