MODEL 1
REMARK minimizedAffinity -10.4722195
REMARK CNNscore 0.807992995
REMARK CNNaffinity 7.55496407
REMARK  12 active torsions:
REMARK  status: ('A' for Active; 'I' for Inactive)
REMARK    1  A    between atoms: C4_5  and  C5_6 
REMARK    2  A    between atoms: C5_6  and  O2_7 
REMARK    3  A    between atoms: C5_6  and  C6_8 
REMARK    4  A    between atoms: C6_8  and  O3_10 
REMARK    5  A    between atoms: C6_8  and  C8_11 
REMARK    6  A    between atoms: C11_14  and  O4_15 
REMARK    7  A    between atoms: C17_22  and  O6_23 
REMARK    8  A    between atoms: O6_23  and  C18_24 
REMARK    9  A    between atoms: C18_24  and  C19_25 
REMARK   10  A    between atoms: C19_25  and  C20_26 
REMARK   11  A    between atoms: C35_41  and  C36_42 
REMARK   12  A    between atoms: C36_42  and  O7_43 
ROOT
HETATM    1  C8  UNL     1      -1.025   7.467  13.827  1.00  0.00     0.034 C 
HETATM    2  C9  UNL     1      -0.709   6.019  14.257  1.00  0.00     0.012 C 
HETATM    3  C10 UNL     1      -2.019   5.275  14.085  1.00  0.00     0.044 C 
HETATM    4  C11 UNL     1      -3.028   6.210  14.754  1.00  0.00     0.089 C 
HETATM    5  C12 UNL     1      -4.486   6.019  14.380  1.00  0.00    -0.037 C 
HETATM    6  C13 UNL     1      -4.961   4.993  13.654  1.00  0.00     0.057 C 
HETATM    7  C14 UNL     1      -6.388   4.924  13.246  1.00  0.00     0.154 C 
HETATM    8  O5  UNL     1      -6.782   3.930  12.643  1.00  0.00    -0.293 OA
HETATM    9  C15 UNL     1      -7.264   6.137  13.522  1.00  0.00     0.071 C 
HETATM   10  C16 UNL     1      -8.755   5.800  13.416  1.00  0.00     0.045 C 
HETATM   11  C17 UNL     1      -9.631   7.030  13.656  1.00  0.00     0.122 C 
HETATM   12  C26 UNL     1      -9.288   7.734  14.972  1.00  0.00     0.033 C 
HETATM   13  C27 UNL     1      -7.792   8.041  15.091  1.00  0.00     0.013 C 
HETATM   14  C28 UNL     1      -6.895   6.791  14.879  1.00  0.00    -0.026 C 
HETATM   15  C29 UNL     1      -7.145   5.813  16.068  1.00  0.00     0.016 C 
HETATM   16  C30 UNL     1      -5.368   7.153  14.876  1.00  0.00     0.026 C 
HETATM   17  C31 UNL     1      -4.976   8.425  14.101  1.00  0.00     0.011 C 
HETATM   18  C32 UNL     1      -3.521   8.443  13.582  1.00  0.00     0.014 C 
HETATM   19  C33 UNL     1      -2.494   7.676  14.452  1.00  0.00    -0.002 C 
HETATM   20  C34 UNL     1      -2.303   8.498  15.758  1.00  0.00     0.019 C 
ENDROOT
BRANCH   1  21
HETATM   21  C6  UNL     1      -0.756   7.776  12.303  1.00  0.00     0.087 C 
HETATM   22  C7  UNL     1      -1.486   9.067  11.867  1.00  0.00     0.049 C 
BRANCH  21  23
HETATM   23  C5  UNL     1       0.754   7.930  11.864  1.00  0.00     0.181 C 
BRANCH  23  24
HETATM   24  C4  UNL     1       1.060   7.726  10.363  1.00  0.00     0.159 C 
HETATM   25  O1  UNL     1       2.106   8.600   9.903  1.00  0.00    -0.382 OA
HETATM   26  C3  UNL     1       2.935   7.894   8.970  1.00  0.00     0.173 C 
HETATM   27  C2  UNL     1       2.184   6.626   8.605  1.00  0.00     0.014 C 
HETATM   28  C1  UNL     1       3.070   5.543   8.018  1.00  0.00     0.012 C 
HETATM   29  C35 UNL     1       1.428   6.300   9.897  1.00  0.00     0.046 C 
BRANCH  29  30
HETATM   30  C36 UNL     1       2.198   5.422  10.892  1.00  0.00     0.172 C 
BRANCH  30  31
HETATM   31  O7  UNL     1       2.383   4.095  10.430  1.00  0.00    -0.400 OA
HETATM   32  H52 UNL     1       3.028   4.162   9.690  1.00  0.00     0.209 HD
ENDBRANCH  30  31
ENDBRANCH  29  30
ENDBRANCH  23  24
BRANCH  23  33
HETATM   33  O2  UNL     1       1.279   9.173  12.362  1.00  0.00    -0.390 OA
HETATM   34  H9  UNL     1       0.747   9.372  13.161  1.00  0.00     0.210 HD
ENDBRANCH  23  33
ENDBRANCH  21  23
BRANCH  21  35
HETATM   35  O3  UNL     1      -1.252   6.676  11.512  1.00  0.00    -0.387 OA
HETATM   36  H13 UNL     1      -1.356   6.983  10.593  1.00  0.00     0.210 HD
ENDBRANCH  21  35
ENDBRANCH   1  21
BRANCH   4  37
HETATM   37  O4  UNL     1      -2.964   5.945  16.163  1.00  0.00    -0.384 OA
HETATM   38  H19 UNL     1      -3.251   5.026  16.299  1.00  0.00     0.211 HD
ENDBRANCH   4  37
BRANCH  11  39
HETATM   39  O6  UNL     1     -10.991   6.594  13.720  1.00  0.00    -0.386 OA
BRANCH  39  40
HETATM   40  C18 UNL     1     -11.950   7.647  13.626  1.00  0.00     0.172 C 
BRANCH  40  41
HETATM   41  C19 UNL     1     -13.079   7.450  14.640  1.00  0.00     0.064 C 
BRANCH  41  42
HETATM   42  C20 UNL     1     -14.338   6.925  14.000  1.00  0.00    -0.056 A 
HETATM   43  C21 UNL     1     -15.137   5.984  14.665  1.00  0.00     0.007 A 
HETATM   44  C22 UNL     1     -16.295   5.491  14.064  1.00  0.00     0.001 A 
HETATM   45  C23 UNL     1     -16.664   5.929  12.793  1.00  0.00     0.000 A 
HETATM   46  C24 UNL     1     -15.874   6.860  12.122  1.00  0.00     0.001 A 
HETATM   47  C25 UNL     1     -14.714   7.355  12.721  1.00  0.00     0.007 A 
ENDBRANCH  41  42
ENDBRANCH  40  41
ENDBRANCH  39  40
ENDBRANCH  11  39
TORSDOF 12
ENDMDL
