MODEL 1
REMARK minimizedAffinity -10.0501881
REMARK  6 active torsions:
REMARK  status: ('A' for Active; 'I' for Inactive)
REMARK    1  A    between atoms: C3_3  and  C4_4 
REMARK    2  A    between atoms: C4_4  and  O1_5 
REMARK    3  A    between atoms: C6_9  and  C7_10 
REMARK    4  A    between atoms: C7_10  and  C9_12 
REMARK    5  A    between atoms: C21_26  and  C22_27 
REMARK    6  A    between atoms: C22_27  and  O6_28 
ROOT
HETATM    1  C9  UNL     1       0.677   6.214  11.836  1.00  0.00     0.000 C 
HETATM    2  C10 UNL     1       0.660   4.738  11.336  1.00  0.00     0.006 C 
HETATM    3  C11 UNL     1      -0.744   4.179  11.594  1.00  0.00     0.006 C 
HETATM    4  C12 UNL     1      -1.547   5.392  12.033  1.00  0.00    -0.001 C 
HETATM    5  C13 UNL     1      -2.881   5.143  12.758  1.00  0.00    -0.002 C 
HETATM    6  C14 UNL     1      -3.791   4.273  11.885  1.00  0.00     0.040 C 
HETATM    7  C15 UNL     1      -5.197   4.201  12.350  1.00  0.00     0.159 A 
HETATM    8  O4  UNL     1      -5.403   3.917  13.732  1.00  0.00    -0.368 OA
HETATM    9  C16 UNL     1      -5.787   5.234  13.282  1.00  0.00     0.104 A 
HETATM   10  C17 UNL     1      -7.279   5.433  13.163  1.00  0.00     0.042 C 
HETATM   11  C18 UNL     1      -7.830   6.327  14.258  1.00  0.00     0.010 C 
HETATM   12  C19 UNL     1      -7.172   7.698  14.240  1.00  0.00     0.079 C 
HETATM   13  C20 UNL     1      -5.747   7.680  13.708  1.00  0.00     0.141 C 
HETATM   14  O5  UNL     1      -5.292   8.709  13.207  1.00  0.00    -0.297 OA
HETATM   15  C21 UNL     1      -4.925   6.371  13.871  1.00  0.00     0.079 C 
HETATM   16  C23 UNL     1      -3.558   6.511  13.081  1.00  0.00     0.011 C 
HETATM   17  C24 UNL     1      -2.556   7.493  13.758  1.00  0.00     0.007 C 
HETATM   18  C25 UNL     1      -1.206   7.614  13.033  1.00  0.00     0.010 C 
HETATM   19  C26 UNL     1      -0.530   6.245  12.832  1.00  0.00    -0.036 C 
HETATM   20  C27 UNL     1      -0.136   5.621  14.192  1.00  0.00     0.016 C 
ENDROOT
BRANCH   1  21
HETATM   21  C7  UNL     1       2.101   6.677  12.304  1.00  0.00     0.016 C 
HETATM   22  C8  UNL     1       2.047   7.402  13.653  1.00  0.00     0.013 C 
BRANCH  21  23
HETATM   23  C6  UNL     1       2.779   7.585  11.215  1.00  0.00     0.140 C 
HETATM   24  O3  UNL     1       2.340   7.206   9.892  1.00  0.00    -0.311 OA
HETATM   25  C5  UNL     1       2.902   6.148   9.249  1.00  0.00     0.292 C 
HETATM   26  C3  UNL     1       4.146   5.574   9.844  1.00  0.00     0.042 C 
HETATM   27  O2  UNL     1       2.423   5.717   8.208  1.00  0.00    -0.260 OA
HETATM   28  C2  UNL     1       4.858   6.311  10.727  1.00  0.00    -0.067 C 
HETATM   29  C1  UNL     1       6.180   5.924  11.322  1.00  0.00     0.044 C 
HETATM   30  C28 UNL     1       4.310   7.637  11.181  1.00  0.00     0.067 C 
BRANCH  26  31
HETATM   31  C4  UNL     1       4.554   4.237   9.300  1.00  0.00     0.209 C 
BRANCH  31  32
HETATM   32  O1  UNL     1       3.523   3.282   9.539  1.00  0.00    -0.396 OA
HETATM   33  H6  UNL     1       3.289   3.327  10.481  1.00  0.00     0.209 HD
ENDBRANCH  31  32
ENDBRANCH  26  31
ENDBRANCH  21  23
ENDBRANCH   1  21
BRANCH  15  34
HETATM   34  C22 UNL     1      -4.735   6.192  15.408  1.00  0.00     0.185 C 
BRANCH  34  35
HETATM   35  O6  UNL     1      -5.839   6.649  16.178  1.00  0.00    -0.400 OA
HETATM   36  H30 UNL     1      -5.567   6.654  17.111  1.00  0.00     0.209 HD
ENDBRANCH  34  35
ENDBRANCH  15  34
TORSDOF 6
ENDMDL
