MODEL 1
REMARK minimizedAffinity -5.54585314
REMARK CNNscore 0.736523926
REMARK CNNaffinity 6.68528938
REMARK  5 active torsions:
REMARK  status: ('A' for Active; 'I' for Inactive)
REMARK    1  A    between atoms: C2_2  and  C4_4 
REMARK    2  A    between atoms: C7_7  and  C8_8 
REMARK    3  A    between atoms: C8_8  and  O2_10 
REMARK    4  A    between atoms: C21_24  and  C23_26 
REMARK    5  A    between atoms: C23_26  and  O4_27 
ROOT
HETATM    1  C4  UNL     1      -1.690  14.987   2.012  1.00  0.00     0.019 C 
HETATM    2  C5  UNL     1      -0.339  15.639   1.605  1.00  0.00     0.011 C 
HETATM    3  C6  UNL     1      -0.621  17.134   1.316  1.00  0.00     0.021 C 
HETATM    4  C7  UNL     1      -2.158  17.250   1.272  1.00  0.00     0.050 C 
HETATM    5  C9  UNL     1      -2.702  18.623   1.689  1.00  0.00     0.022 C 
HETATM    6  C10 UNL     1      -4.213  18.572   2.040  1.00  0.00     0.011 C 
HETATM    7  C11 UNL     1      -4.646  17.489   3.105  1.00  0.00    -0.032 C 
HETATM    8  C12 UNL     1      -3.979  17.946   4.444  1.00  0.00     0.016 C 
HETATM    9  C13 UNL     1      -4.048  16.098   2.649  1.00  0.00     0.000 C 
HETATM   10  C14 UNL     1      -4.801  15.404   1.493  1.00  0.00     0.006 C 
HETATM   11  C15 UNL     1      -6.224  15.894   1.265  1.00  0.00     0.006 C 
HETATM   12  C16 UNL     1      -6.894  16.130   2.612  1.00  0.00     0.003 C 
HETATM   13  C17 UNL     1      -8.468  16.016   2.605  1.00  0.00    -0.031 C 
HETATM   14  C18 UNL     1      -9.088  16.788   1.409  1.00  0.00     0.016 C 
HETATM   15  C19 UNL     1      -8.857  14.523   2.442  1.00  0.00     0.036 C 
HETATM   16  C20 UNL     1     -10.363  14.282   2.496  1.00  0.00     0.169 C 
HETATM   17  O3  UNL     1     -11.078  15.303   3.182  1.00  0.00    -0.378 OA
HETATM   18  C21 UNL     1     -10.433  15.810   4.364  1.00  0.00     0.082 C 
HETATM   19  C22 UNL     1     -11.401  16.887   4.899  1.00  0.00     0.049 C 
HETATM   20  C24 UNL     1      -9.075  16.520   3.965  1.00  0.00     0.030 C 
HETATM   21  C25 UNL     1      -8.039  16.506   5.103  1.00  0.00     0.009 C 
HETATM   22  C26 UNL     1      -6.686  17.192   4.830  1.00  0.00     0.011 C 
HETATM   23  C27 UNL     1      -6.285  17.389   3.331  1.00  0.00    -0.032 C 
HETATM   24  C28 UNL     1      -6.910  18.737   2.889  1.00  0.00     0.016 C 
HETATM   25  C29 UNL     1      -2.535  16.223   2.364  1.00  0.00     0.017 C 
ENDROOT
BRANCH   4  26
HETATM   26  C8  UNL     1      -2.612  16.992  -0.182  1.00  0.00     0.149 C 
HETATM   27  O1  UNL     1      -2.669  15.914  -0.751  1.00  0.00    -0.649 OA
BRANCH  26  28
HETATM   28  O2  UNL     1      -2.985  18.090  -0.865  1.00  0.00    -0.776 OA
HETATM   29  H11 UNL     1      -3.242  17.738  -1.743  1.00  0.00     0.167 HD
ENDBRANCH  26  28
ENDBRANCH   4  26
BRANCH   1  30
HETATM   30  C2  UNL     1      -1.497  13.896   3.053  1.00  0.00    -0.088 C 
HETATM   31  C1  UNL     1      -1.513  12.575   2.805  1.00  0.00     0.014 C 
HETATM   32  C3  UNL     1      -1.275  14.397   4.458  1.00  0.00     0.043 C 
ENDBRANCH   1  30
BRANCH  18  33
HETATM   33  C23 UNL     1     -10.348  14.666   5.418  1.00  0.00     0.202 C 
BRANCH  33  34
HETATM   34  O4  UNL     1     -11.606  14.118   5.796  1.00  0.00    -0.398 OA
HETATM   35  H37 UNL     1     -11.916  13.564   5.059  1.00  0.00     0.209 HD
ENDBRANCH  33  34
ENDBRANCH  18  33
TORSDOF 5
ENDMDL
