MODEL 1
REMARK minimizedAffinity -7.15153837
REMARK CNNscore 0.519494295
REMARK CNNaffinity 6.97301531
REMARK  6 active torsions:
REMARK  status: ('A' for Active; 'I' for Inactive)
REMARK    1  A    between atoms: C2_2  and  C3_3 
REMARK    2  A    between atoms: C2_2  and  C9_10 
REMARK    3  A    between atoms: C3_3  and  C4_4 
REMARK    4  A    between atoms: C4_4  and  C5_5 
REMARK    5  A    between atoms: C17_18  and  C18_19 
REMARK    6  A    between atoms: C18_19  and  O2_22 
ROOT
HETATM    1  C9  UNL     1      -8.982   6.926  13.892  1.00  0.00    -0.002 C 
HETATM    2  C10 UNL     1      -8.458   6.742  15.353  1.00  0.00     0.006 C 
HETATM    3  C11 UNL     1      -9.410   7.530  16.282  1.00  0.00     0.011 C 
HETATM    4  C12 UNL     1     -10.201   8.444  15.332  1.00  0.00    -0.032 C 
HETATM    5  C13 UNL     1      -9.249   9.647  15.019  1.00  0.00     0.016 C 
HETATM    6  C14 UNL     1     -11.580   8.941  15.861  1.00  0.00     0.003 C 
HETATM    7  C15 UNL     1     -11.549   9.709  17.194  1.00  0.00     0.009 C 
HETATM    8  C16 UNL     1     -12.779  10.592  17.417  1.00  0.00     0.042 C 
HETATM    9  C17 UNL     1     -14.141  10.081  16.848  1.00  0.00     0.095 C 
HETATM   10  O3  UNL     1     -14.959  11.271  16.918  1.00  0.00    -0.377 OA
HETATM   11  C21 UNL     1     -16.232  11.280  16.294  1.00  0.00     0.169 C 
HETATM   12  C22 UNL     1     -16.316  10.507  14.991  1.00  0.00     0.027 C 
HETATM   13  C23 UNL     1     -14.950  10.322  14.368  1.00  0.00     0.010 C 
HETATM   14  C24 UNL     1     -13.956   9.638  15.337  1.00  0.00     0.032 C 
HETATM   15  C25 UNL     1     -12.457   9.667  14.779  1.00  0.00    -0.033 C 
HETATM   16  C26 UNL     1     -11.973  11.124  14.512  1.00  0.00     0.016 C 
HETATM   17  C27 UNL     1     -12.426   8.895  13.407  1.00  0.00     0.011 C 
HETATM   18  C28 UNL     1     -11.072   8.290  12.975  1.00  0.00     0.011 C 
HETATM   19  C29 UNL     1     -10.431   7.466  14.106  1.00  0.00    -0.032 C 
HETATM   20  C30 UNL     1     -11.374   6.262  14.405  1.00  0.00     0.016 C 
ENDROOT
BRANCH   1  21
HETATM   21  C2  UNL     1      -8.634   5.736  12.947  1.00  0.00    -0.014 C 
HETATM   22  C1  UNL     1      -8.981   5.893  11.462  1.00  0.00     0.010 C 
BRANCH  21  23
HETATM   23  C3  UNL     1      -7.167   5.286  13.122  1.00  0.00     0.007 C 
BRANCH  23  24
HETATM   24  C4  UNL     1      -6.949   3.789  12.866  1.00  0.00     0.035 C 
BRANCH  24  25
HETATM   25  C5  UNL     1      -5.546   3.523  12.408  1.00  0.00     0.156 A 
HETATM   26  O1  UNL     1      -5.364   3.554  10.985  1.00  0.00    -0.370 OA
HETATM   27  C6  UNL     1      -5.137   2.287  11.623  1.00  0.00     0.080 A 
HETATM   28  C7  UNL     1      -3.697   1.874  11.639  1.00  0.00     0.048 C 
HETATM   29  C8  UNL     1      -6.129   1.230  11.251  1.00  0.00     0.048 C 
ENDBRANCH  24  25
ENDBRANCH  23  24
ENDBRANCH  21  23
ENDBRANCH   1  21
BRANCH   9  30
HETATM   30  C18 UNL     1     -14.717   8.923  17.812  1.00  0.00     0.082 C 
HETATM   31  C19 UNL     1     -14.091   8.984  19.223  1.00  0.00     0.049 C 
HETATM   32  C20 UNL     1     -16.243   8.890  18.004  1.00  0.00     0.049 C 
BRANCH  30  33
HETATM   33  O2  UNL     1     -14.396   7.634  17.261  1.00  0.00    -0.388 OA
HETATM   34  H35 UNL     1     -14.571   6.958  17.941  1.00  0.00     0.210 HD
ENDBRANCH  30  33
ENDBRANCH   9  30
TORSDOF 6
ENDMDL
