MODEL 1
REMARK minimizedAffinity -7.96561766
REMARK CNNscore 0.665653467
REMARK CNNaffinity 7.06627321
REMARK  15 active torsions:
REMARK  status: ('A' for Active; 'I' for Inactive)
REMARK    1  A    between atoms: C2_2  and  C3_3 
REMARK    2  A    between atoms: C2_2  and  C35_44 
REMARK    3  A    between atoms: C3_3  and  C4_4 
REMARK    4  A    between atoms: C4_4  and  C5_5 
REMARK    5  A    between atoms: C5_5  and  C7_7 
REMARK    6  A    between atoms: C9_9  and  O1_10 
REMARK    7  A    between atoms: C10_11  and  C11_12 
REMARK    8  A    between atoms: C11_12  and  O3_14 
REMARK    9  A    between atoms: C22_25  and  O4_26 
REMARK   10  A    between atoms: O4_26  and  C23_27 
REMARK   11  A    between atoms: C24_29  and  C25_30 
REMARK   12  A    between atoms: C25_30  and  O6_31 
REMARK   13  A    between atoms: C26_32  and  O7_33 
REMARK   14  A    between atoms: C28_35  and  O8_36 
REMARK   15  A    between atoms: C29_37  and  O9_38 
ROOT
HETATM    1  C7  UNL     1      -3.344  50.432 -24.916  1.00  0.00     0.001 C 
HETATM    2  C8  UNL     1      -4.498  51.487 -24.850  1.00  0.00     0.039 C 
HETATM    3  C9  UNL     1      -5.242  51.289 -23.509  1.00  0.00     0.142 C 
HETATM    4  C10 UNL     1      -4.348  50.298 -22.721  1.00  0.00     0.102 C 
HETATM    5  C12 UNL     1      -4.926  49.485 -21.555  1.00  0.00    -0.054 C 
HETATM    6  C13 UNL     1      -4.401  48.273 -21.228  1.00  0.00    -0.067 C 
HETATM    7  C14 UNL     1      -3.340  47.603 -22.109  1.00  0.00     0.036 C 
HETATM    8  C15 UNL     1      -2.754  48.440 -23.265  1.00  0.00     0.015 C 
HETATM    9  C16 UNL     1      -3.813  49.366 -23.878  1.00  0.00    -0.016 C 
HETATM   10  C17 UNL     1      -4.908  48.462 -24.526  1.00  0.00     0.017 C 
HETATM   11  C18 UNL     1      -4.844  47.494 -19.958  1.00  0.00    -0.013 C 
HETATM   12  C19 UNL     1      -5.699  46.296 -20.457  1.00  0.00     0.021 C 
HETATM   13  C20 UNL     1      -3.615  46.943 -19.157  1.00  0.00     0.017 C 
HETATM   14  C21 UNL     1      -3.695  47.093 -17.630  1.00  0.00     0.037 C 
HETATM   15  C22 UNL     1      -5.088  46.866 -17.032  1.00  0.00     0.153 C 
HETATM   16  C30 UNL     1      -6.172  47.623 -17.782  1.00  0.00    -0.055 C 
HETATM   17  C31 UNL     1      -7.456  47.571 -17.377  1.00  0.00     0.017 C 
HETATM   18  C32 UNL     1      -5.669  48.413 -18.987  1.00  0.00     0.029 C 
HETATM   19  C33 UNL     1      -6.713  49.228 -19.752  1.00  0.00     0.014 C 
HETATM   20  C34 UNL     1      -6.011  50.153 -20.742  1.00  0.00     0.036 C 
ENDROOT
BRANCH  15  21
HETATM   21  O4  UNL     1      -5.422  45.474 -17.075  1.00  0.00    -0.349 OA
BRANCH  21  22
HETATM   22  C23 UNL     1      -5.497  44.885 -15.772  1.00  0.00     0.292 C 
HETATM   23  O5  UNL     1      -5.232  45.850 -14.760  1.00  0.00    -0.348 OA
HETATM   24  C24 UNL     1      -3.927  45.737 -14.182  1.00  0.00     0.179 C 
HETATM   25  C26 UNL     1      -3.780  44.383 -13.445  1.00  0.00     0.183 C 
HETATM   26  C28 UNL     1      -4.321  43.235 -14.322  1.00  0.00     0.183 C 
HETATM   27  C29 UNL     1      -4.532  43.683 -15.761  1.00  0.00     0.204 C 
BRANCH  24  28
HETATM   28  C25 UNL     1      -3.686  46.947 -13.277  1.00  0.00     0.198 C 
BRANCH  28  29
HETATM   29  O6  UNL     1      -3.668  48.163 -14.025  1.00  0.00    -0.398 OA
HETATM   30  H36 UNL     1      -4.579  48.332 -14.325  1.00  0.00     0.209 HD
ENDBRANCH  28  29
ENDBRANCH  24  28
BRANCH  25  31
HETATM   31  O7  UNL     1      -4.535  44.429 -12.216  1.00  0.00    -0.385 OA
HETATM   32  C27 UNL     1      -3.874  43.760 -11.139  1.00  0.00     0.202 C 
ENDBRANCH  25  31
BRANCH  26  33
HETATM   33  O8  UNL     1      -3.406  42.130 -14.299  1.00  0.00    -0.390 OA
HETATM   34  H42 UNL     1      -3.734  41.512 -14.984  1.00  0.00     0.210 HD
ENDBRANCH  26  33
BRANCH  27  35
HETATM   35  O9  UNL     1      -5.047  42.588 -16.537  1.00  0.00    -0.388 OA
HETATM   36  H44 UNL     1      -5.220  42.954 -17.425  1.00  0.00     0.210 HD
ENDBRANCH  27  35
ENDBRANCH  21  22
ENDBRANCH  15  21
BRANCH   4  37
HETATM   37  C11 UNL     1      -3.206  51.115 -22.024  1.00  0.00     0.156 C 
HETATM   38  O2  UNL     1      -2.490  51.971 -22.529  1.00  0.00    -0.649 OA
BRANCH  37  39
HETATM   39  O3  UNL     1      -3.014  50.849 -20.710  1.00  0.00    -0.775 OA
HETATM   40  H16 UNL     1      -2.284  51.465 -20.474  1.00  0.00     0.167 HD
ENDBRANCH  37  39
ENDBRANCH   4  37
BRANCH   3  41
HETATM   41  O1  UNL     1      -6.546  50.770 -23.778  1.00  0.00    -0.394 OA
HETATM   42  H15 UNL     1      -7.019  51.421 -24.324  1.00  0.00     0.210 HD
ENDBRANCH   3  41
BRANCH   1  43
HETATM   43  C5  UNL     1      -3.030  50.012 -26.385  1.00  0.00    -0.013 C 
HETATM   44  C6  UNL     1      -2.970  48.492 -26.545  1.00  0.00     0.010 C 
BRANCH  43  45
HETATM   45  C4  UNL     1      -1.697  50.660 -26.857  1.00  0.00     0.009 C 
BRANCH  45  46
HETATM   46  C3  UNL     1      -1.277  51.895 -26.042  1.00  0.00     0.034 C 
BRANCH  46  47
HETATM   47  C2  UNL     1       0.215  51.905 -25.743  1.00  0.00    -0.086 C 
HETATM   48  C1  UNL     1       0.649  52.373 -24.556  1.00  0.00     0.014 C 
BRANCH  47  49
HETATM   49  C35 UNL     1       1.137  51.370 -26.837  1.00  0.00     0.005 C 
HETATM   50  C36 UNL     1       2.620  51.269 -26.448  1.00  0.00     0.014 C 
HETATM   51  C37 UNL     1       0.991  52.202 -28.113  1.00  0.00     0.014 C 
ENDBRANCH  47  49
ENDBRANCH  46  47
ENDBRANCH  45  46
ENDBRANCH  43  45
ENDBRANCH   1  43
TORSDOF 15
ENDMDL
