MODEL 1
REMARK minimizedAffinity -7.04045439
REMARK CNNscore 0.523793817
REMARK CNNaffinity 5.94836664
REMARK  4 active torsions:
REMARK  status: ('A' for Active; 'I' for Inactive)
REMARK    1  A    between atoms: C2_2  and  C3_3 
REMARK    2  A    between atoms: C7_7  and  C8_8 
REMARK    3  A    between atoms: C8_8  and  C9_9 
REMARK    4  A    between atoms: C26_31  and  O5_32 
ROOT
HETATM    1  C3  UNL     1       4.276  55.368  -8.964  1.00  0.00     0.008 C 
HETATM    2  C4  UNL     1       4.158  54.363  -7.844  1.00  0.00    -0.026 C 
HETATM    3  C5  UNL     1       3.035  53.737  -7.449  1.00  0.00    -0.028 C 
HETATM    4  C6  UNL     1       1.651  53.934  -8.009  1.00  0.00     0.059 C 
HETATM    5  C7  UNL     1       0.553  53.964  -6.930  1.00  0.00     0.135 C 
HETATM    6  O1  UNL     1       0.642  55.187  -6.150  1.00  0.00    -0.315 OA
HETATM    7  C12 UNL     1       1.055  55.057  -4.852  1.00  0.00     0.276 C 
HETATM    8  O2  UNL     1       1.531  54.026  -4.384  1.00  0.00    -0.264 OA
HETATM    9  C13 UNL     1       0.754  56.349  -3.995  1.00  0.00     0.095 C 
HETATM   10  C14 UNL     1       0.617  55.790  -2.544  1.00  0.00     0.036 C 
HETATM   11  C15 UNL     1      -0.607  56.897  -4.406  1.00  0.00     0.003 C 
HETATM   12  C16 UNL     1      -1.230  57.975  -3.912  1.00  0.00     0.072 C 
HETATM   13  C17 UNL     1      -0.740  58.875  -2.855  1.00  0.00     0.245 C 
HETATM   14  O3  UNL     1      -1.561  59.515  -2.199  1.00  0.00    -0.268 OA
HETATM   15  N1  UNL     1       0.589  59.070  -2.661  1.00  0.00    -0.320 N 
HETATM   16  C18 UNL     1       1.720  58.592  -3.286  1.00  0.00     0.098 C 
HETATM   17  C19 UNL     1       1.832  57.448  -3.990  1.00  0.00     0.045 C 
HETATM   18  C20 UNL     1       3.113  57.200  -4.719  1.00  0.00     0.194 C 
HETATM   19  O4  UNL     1       3.249  56.223  -5.436  1.00  0.00    -0.287 OA
HETATM   20  C21 UNL     1       4.262  58.113  -4.576  1.00  0.00     0.046 A 
HETATM   21  C22 UNL     1       4.183  59.156  -3.665  1.00  0.00     0.032 A 
HETATM   22  C23 UNL     1       5.306  59.947  -3.368  1.00  0.00     0.026 A 
HETATM   23  C24 UNL     1       6.540  59.688  -3.972  1.00  0.00    -0.027 A 
HETATM   24  C25 UNL     1       7.747  60.512  -3.624  1.00  0.00     0.051 C 
HETATM   25  C26 UNL     1       6.610  58.668  -4.923  1.00  0.00     0.086 A 
HETATM   26  C27 UNL     1       5.470  57.919  -5.264  1.00  0.00     0.059 A 
HETATM   27  C28 UNL     1       5.610  57.053  -6.455  1.00  0.00     0.163 C 
HETATM   28  O6  UNL     1       6.392  56.109  -6.381  1.00  0.00    -0.292 OA
HETATM   29  C29 UNL     1       5.049  57.591  -7.763  1.00  0.00     0.084 C 
HETATM   30  C30 UNL     1       3.960  56.796  -8.476  1.00  0.00     0.016 C 
HETATM   31  C31 UNL     1       2.903  59.474  -3.028  1.00  0.00     0.210 C 
HETATM   32  O7  UNL     1       2.793  60.450  -2.291  1.00  0.00    -0.285 OA
HETATM   33  H26 UNL     1       0.757  59.862  -2.036  1.00  0.00     0.169 HD
ENDROOT
BRANCH   5  34
HETATM   34  C8  UNL     1      -0.863  53.989  -7.542  1.00  0.00     0.037 C 
BRANCH  34  35
HETATM   35  C9  UNL     1      -0.961  53.794  -9.065  1.00  0.00    -0.020 C 
HETATM   36  C10 UNL     1      -2.067  52.816  -9.461  1.00  0.00     0.009 C 
HETATM   37  C11 UNL     1      -1.201  55.147  -9.743  1.00  0.00     0.009 C 
ENDBRANCH  34  35
ENDBRANCH   5  34
BRANCH   1  38
HETATM   38  C2  UNL     1       5.622  55.212  -9.697  1.00  0.00     0.004 C 
HETATM   39  C1  UNL     1       6.420  53.997  -9.239  1.00  0.00     0.006 C 
ENDBRANCH   1  38
BRANCH  25  40
HETATM   40  O5  UNL     1       7.826  58.430  -5.512  1.00  0.00    -0.359 OA
HETATM   41  H31 UNL     1       7.837  57.510  -5.853  1.00  0.00     0.217 HD
ENDBRANCH  25  40
TORSDOF 4
ENDMDL
