MODEL 1
REMARK minimizedAffinity -9.51197529
REMARK  8 active torsions:
REMARK  status: ('A' for Active; 'I' for Inactive)
REMARK    1  A    between atoms: C12_14  and  C13_15 
REMARK    2  A    between atoms: C13_15  and  C15_17 
REMARK    3  A    between atoms: C15_17  and  C16_18 
REMARK    4  A    between atoms: C16_18  and  C17_20 
REMARK    5  A    between atoms: C26_29  and  C27_30 
REMARK    6  A    between atoms: C27_30  and  C28_31 
REMARK    7  A    between atoms: C28_31  and  C29_32 
REMARK    8  A    between atoms: C29_32  and  O5_34 
ROOT
HETATM    1  C1  UNL     1      -2.977  50.826 -27.856  1.00  0.00     0.025 C 
HETATM    2  C2  UNL     1      -3.044  49.866 -26.926  1.00  0.00     0.015 C 
HETATM    3  C3  UNL     1      -4.035  48.772 -27.019  1.00  0.00     0.289 C 
HETATM    4  O1  UNL     1      -4.778  48.545 -27.956  1.00  0.00    -0.260 OA
HETATM    5  O2  UNL     1      -3.959  48.044 -25.875  1.00  0.00    -0.311 OA
HETATM    6  C4  UNL     1      -3.120  48.704 -24.907  1.00  0.00     0.142 C 
HETATM    7  C5  UNL     1      -4.021  49.331 -23.853  1.00  0.00     0.039 C 
HETATM    8  C6  UNL     1      -3.323  50.251 -22.838  1.00  0.00     0.006 C 
HETATM    9  C7  UNL     1      -2.292  51.207 -23.488  1.00  0.00    -0.027 A 
HETATM   10  C8  UNL     1      -1.503  52.078 -22.489  1.00  0.00     0.011 C 
HETATM   11  C9  UNL     1      -1.048  51.373 -21.201  1.00  0.00     0.011 C 
HETATM   12  C10 UNL     1      -2.208  50.611 -20.544  1.00  0.00    -0.032 C 
HETATM   13  C11 UNL     1      -3.296  51.641 -20.127  1.00  0.00     0.016 C 
HETATM   14  C12 UNL     1      -1.863  49.708 -19.317  1.00  0.00    -0.002 C 
HETATM   15  C21 UNL     1      -2.967  48.610 -19.359  1.00  0.00     0.006 C 
HETATM   16  C22 UNL     1      -3.665  48.715 -20.730  1.00  0.00     0.011 C 
HETATM   17  C23 UNL     1      -2.698  49.535 -21.600  1.00  0.00    -0.032 C 
HETATM   18  C24 UNL     1      -1.576  48.557 -22.072  1.00  0.00     0.016 C 
HETATM   19  C25 UNL     1      -2.770  52.003 -24.678  1.00  0.00     0.022 A 
HETATM   20  C26 UNL     1      -1.750  50.903 -24.921  1.00  0.00    -0.021 A 
HETATM   21  C30 UNL     1      -2.234  49.664 -25.688  1.00  0.00     0.063 C 
ENDROOT
BRANCH  14  22
HETATM   22  C13 UNL     1      -1.585  50.265 -17.887  1.00  0.00    -0.007 C 
HETATM   23  C14 UNL     1      -2.789  50.757 -17.072  1.00  0.00     0.011 C 
BRANCH  22  24
HETATM   24  C15 UNL     1      -0.480  51.339 -17.905  1.00  0.00     0.087 C 
BRANCH  24  25
HETATM   25  C16 UNL     1       0.389  51.340 -16.655  1.00  0.00     0.149 C 
HETATM   26  O3  UNL     1       0.120  50.677 -15.658  1.00  0.00    -0.293 OA
BRANCH  25  27
HETATM   27  C17 UNL     1       1.641  52.153 -16.738  1.00  0.00     0.052 C 
HETATM   28  C18 UNL     1       2.692  52.065 -15.901  1.00  0.00    -0.084 C 
HETATM   29  C19 UNL     1       3.918  52.910 -16.128  1.00  0.00     0.043 C 
HETATM   30  C20 UNL     1       2.772  51.170 -14.695  1.00  0.00     0.043 C 
ENDBRANCH  25  27
ENDBRANCH  24  25
ENDBRANCH  22  24
ENDBRANCH  14  22
BRANCH  20  31
HETATM   31  C27 UNL     1      -0.281  51.248 -25.227  1.00  0.00     0.021 C 
BRANCH  31  32
HETATM   32  C28 UNL     1      -0.062  52.235 -26.372  1.00  0.00     0.111 C 
BRANCH  32  33
HETATM   33  C29 UNL     1       0.316  53.596 -25.853  1.00  0.00     0.139 C 
HETATM   34  O4  UNL     1       0.061  54.677 -26.353  1.00  0.00    -0.650 OA
BRANCH  33  35
HETATM   35  O5  UNL     1       1.038  53.517 -24.718  1.00  0.00    -0.776 OA
HETATM   36  H41 UNL     1       1.232  54.451 -24.488  1.00  0.00     0.167 HD
ENDBRANCH  33  35
ENDBRANCH  32  33
ENDBRANCH  31  32
ENDBRANCH  20  31
TORSDOF 8
ENDMDL
