MODEL 1
REMARK minimizedAffinity -7.95877934
REMARK CNNscore 0.585840046
REMARK CNNaffinity 6.47632217
REMARK  8 active torsions:
REMARK  status: ('A' for Active; 'I' for Inactive)
REMARK    1  A    between atoms: C2_2  and  C3_3 
REMARK    2  A    between atoms: C2_2  and  C9_11 
REMARK    3  A    between atoms: C3_3  and  C4_4 
REMARK    4  A    between atoms: C4_4  and  C5_5 
REMARK    5  A    between atoms: C6_6  and  C7_7 
REMARK    6  A    between atoms: C6_6  and  C8_9 
REMARK    7  A    between atoms: C7_7  and  O1_8 
REMARK    8  A    between atoms: C8_9  and  O2_10 
ROOT
HETATM    1  C9  UNL     1       7.193  10.234  15.405  1.00  0.00    -0.002 C 
HETATM    2  C10 UNL     1       8.384   9.748  14.533  1.00  0.00     0.007 C 
HETATM    3  C11 UNL     1       7.805   9.219  13.209  1.00  0.00     0.015 C 
HETATM    4  C12 UNL     1       6.345   9.711  13.181  1.00  0.00    -0.005 C 
HETATM    5  C13 UNL     1       6.369  11.176  12.647  1.00  0.00     0.021 C 
HETATM    6  C14 UNL     1       5.307   9.002  12.318  1.00  0.00    -0.000 C 
HETATM    7  C15 UNL     1       3.996   8.973  12.679  1.00  0.00    -0.060 C 
HETATM    8  C16 UNL     1       3.533   9.616  13.993  1.00  0.00     0.036 C 
HETATM    9  C17 UNL     1       4.609  10.222  14.918  1.00  0.00     0.015 C 
HETATM   10  C18 UNL     1       5.973   9.556  14.710  1.00  0.00    -0.028 C 
HETATM   11  C19 UNL     1       5.875   8.069  15.175  1.00  0.00     0.016 C 
HETATM   12  C20 UNL     1       2.910   8.248  11.839  1.00  0.00    -0.014 C 
HETATM   13  C21 UNL     1       2.805   6.826  12.439  1.00  0.00     0.020 C 
HETATM   14  C22 UNL     1       1.534   8.954  11.939  1.00  0.00     0.021 C 
HETATM   15  C23 UNL     1       0.474   8.345  11.035  1.00  0.00     0.080 C 
HETATM   16  C24 UNL     1       0.915   8.367   9.594  1.00  0.00     0.135 C 
HETATM   17  O3  UNL     1       0.128   8.733   8.720  1.00  0.00    -0.297 OA
HETATM   18  C25 UNL     1       2.307   7.806   9.263  1.00  0.00     0.018 C 
HETATM   19  C26 UNL     1       2.183   6.283   9.115  1.00  0.00     0.023 C 
HETATM   20  C27 UNL     1       2.713   8.365   7.874  1.00  0.00     0.023 C 
HETATM   21  C28 UNL     1       3.347   8.291  10.335  1.00  0.00     0.020 C 
HETATM   22  C29 UNL     1       4.734   7.660  10.174  1.00  0.00     0.090 C 
HETATM   23  C30 UNL     1       5.754   8.366  11.035  1.00  0.00     0.157 C 
HETATM   24  O4  UNL     1       6.932   8.388  10.687  1.00  0.00    -0.293 OA
ENDROOT
BRANCH   1  25
HETATM   25  C2  UNL     1       7.448  10.001  16.922  1.00  0.00    -0.014 C 
HETATM   26  C1  UNL     1       6.848  11.104  17.800  1.00  0.00     0.010 C 
BRANCH  25  27
HETATM   27  C3  UNL     1       8.951   9.819  17.263  1.00  0.00     0.008 C 
BRANCH  27  28
HETATM   28  C4  UNL     1       9.533  10.848  18.236  1.00  0.00     0.028 C 
BRANCH  28  29
HETATM   29  C5  UNL     1      10.941  11.210  17.847  1.00  0.00    -0.020 C 
HETATM   30  C6  UNL     1      11.972  11.538  18.655  1.00  0.00    -0.037 C 
BRANCH  30  31
HETATM   31  C7  UNL     1      13.354  11.871  18.130  1.00  0.00     0.200 C 
BRANCH  31  32
HETATM   32  O1  UNL     1      14.089  10.706  17.777  1.00  0.00    -0.397 OA
HETATM   33  H12 UNL     1      13.610  10.313  17.027  1.00  0.00     0.209 HD
ENDBRANCH  31  32
ENDBRANCH  30  31
BRANCH  30  34
HETATM   34  C8  UNL     1      11.888  11.596  20.158  1.00  0.00     0.200 C 
BRANCH  34  35
HETATM   35  O2  UNL     1      13.097  12.149  20.660  1.00  0.00    -0.397 OA
HETATM   36  H15 UNL     1      12.984  12.243  21.620  1.00  0.00     0.209 HD
ENDBRANCH  34  35
ENDBRANCH  30  34
ENDBRANCH  28  29
ENDBRANCH  27  28
ENDBRANCH  25  27
ENDBRANCH   1  25
TORSDOF 8
ENDMDL
