MODEL 1
REMARK minimizedAffinity -8.05260944
REMARK CNNscore 0.19840543
REMARK CNNaffinity 7.79614782
REMARK  12 active torsions:
REMARK  status: ('A' for Active; 'I' for Inactive)
REMARK    1  A    between atoms: C2_2  and  C3_3 
REMARK    2  A    between atoms: C5_5  and  S1_6 
REMARK    3  A    between atoms: C14_18  and  C15_19 
REMARK    4  A    between atoms: C15_19  and  O4_20 
REMARK    5  A    between atoms: C21_26  and  O5_27 
REMARK    6  A    between atoms: C33_40  and  C34_41 
REMARK    7  A    between atoms: C33_40  and  N1_52 
REMARK    8  A    between atoms: C34_41  and  C35_42 
REMARK    9  A    between atoms: C35_42  and  C36_43 
REMARK   10  A    between atoms: C35_42  and  C37_45 
REMARK   11  A    between atoms: C36_43  and  O7_44 
REMARK   12  A    between atoms: C37_45  and  C38_46 
REMARK       I    between atoms: C44_54  and  N2_55 
REMARK       I    between atoms: C44_54  and  N3_56 
ROOT
HETATM    1  C3  UNL     1      -7.165  47.935 -20.134  1.00  0.00     0.019 C 
HETATM    2  C4  UNL     1      -5.826  48.595 -19.675  1.00  0.00     0.033 C 
HETATM    3  C5  UNL     1      -4.533  47.961 -20.248  1.00  0.00     0.139 C 
HETATM    4  C6  UNL     1      -3.224  48.245 -19.440  1.00  0.00     0.038 C 
HETATM    5  C7  UNL     1      -2.802  49.705 -19.331  1.00  0.00    -0.014 C 
HETATM    6  C8  UNL     1      -1.683  49.979 -18.627  1.00  0.00    -0.050 C 
HETATM    7  C9  UNL     1      -0.948  48.796 -18.050  1.00  0.00     0.042 C 
HETATM    8  C10 UNL     1      -1.982  48.195 -17.096  1.00  0.00     0.001 C 
HETATM    9  C11 UNL     1      -2.497  49.269 -16.066  1.00  0.00     0.037 C 
HETATM   10  C12 UNL     1      -1.556  50.438 -15.661  1.00  0.00     0.123 C 
HETATM   11  C13 UNL     1      -0.518  49.957 -14.618  1.00  0.00     0.039 C 
HETATM   12  C14 UNL     1       0.460  50.986 -13.974  1.00  0.00     0.023 C 
HETATM   13  C16 UNL     1       1.790  51.230 -14.735  1.00  0.00     0.101 C 
HETATM   14  C17 UNL     1       1.676  51.849 -16.056  1.00  0.00    -0.101 C 
HETATM   15  C18 UNL     1       1.411  52.249 -17.160  1.00  0.00    -0.066 C 
HETATM   16  C19 UNL     1       0.869  52.586 -18.444  1.00  0.00     0.029 A 
HETATM   17  C20 UNL     1       1.668  53.345 -19.309  1.00  0.00     0.057 A 
HETATM   18  C21 UNL     1       1.200  53.687 -20.572  1.00  0.00     0.067 A 
HETATM   19  C22 UNL     1      -0.064  53.296 -20.991  1.00  0.00     0.037 A 
HETATM   20  C23 UNL     1      -0.867  52.543 -20.132  1.00  0.00     0.014 A 
HETATM   21  C24 UNL     1      -0.421  52.159 -18.847  1.00  0.00    -0.006 A 
HETATM   22  C25 UNL     1      -1.380  51.316 -17.994  1.00  0.00     0.185 C 
HETATM   23  O6  UNL     1      -0.829  51.055 -16.707  1.00  0.00    -0.371 OA
HETATM   24  C26 UNL     1      -3.214  47.665 -17.953  1.00  0.00     0.030 C 
HETATM   25  C27 UNL     1      -3.400  46.161 -17.809  1.00  0.00    -0.057 C 
HETATM   26  C28 UNL     1      -3.048  45.252 -18.805  1.00  0.00     0.092 A 
HETATM   27  C29 UNL     1      -3.566  43.955 -18.783  1.00  0.00     0.096 A 
HETATM   28  C30 UNL     1      -4.414  43.520 -17.746  1.00  0.00    -0.007 C 
HETATM   29  C31 UNL     1      -4.584  44.379 -16.646  1.00  0.00     0.010 C 
HETATM   30  C32 UNL     1      -4.086  45.683 -16.682  1.00  0.00     0.005 C 
HETATM   31  C33 UNL     1      -5.308  42.269 -17.942  1.00  0.00     0.169 C 
HETATM   32  O8  UNL     1      -6.737  42.666 -18.056  1.00  0.00    -0.316 OA
HETATM   33  C45 UNL     1      -7.004  43.875 -18.646  1.00  0.00     0.072 C 
HETATM   34  C46 UNL     1      -7.553  44.871 -17.840  1.00  0.00     0.037 C 
HETATM   35  C47 UNL     1      -7.645  46.183 -18.314  1.00  0.00     0.010 C 
HETATM   36  C48 UNL     1      -7.258  46.496 -19.624  1.00  0.00    -0.054 C 
HETATM   37  C49 UNL     1      -6.848  45.446 -20.464  1.00  0.00     0.010 C 
HETATM   38  C50 UNL     1      -6.711  44.144 -19.978  1.00  0.00     0.037 C 
HETATM   39 NA1  UNL     1      -3.296  46.300 -17.920  1.00  0.00    -0.355 Na
ATOM     40 1HA1 UNL     1      -3.567  47.232 -17.606  1.00  0.00     0.103 HD
ATOM     41 2HA1 UNL     1      -3.095  47.050 -17.258  1.00  0.00     0.103 HD
ENDROOT
BRANCH  31  42
HETATM   42  C34 UNL     1      -5.338  41.372 -16.653  1.00  0.00     0.074 C 
BRANCH  42  43
HETATM   43  C35 UNL     1      -4.150  40.471 -16.208  1.00  0.00     0.018 C 
BRANCH  43  44
HETATM   44  C36 UNL     1      -4.547  39.078 -15.699  1.00  0.00     0.169 C 
BRANCH  44  45
HETATM   45  O7  UNL     1      -5.903  38.977 -15.307  1.00  0.00    -0.400 OA
HETATM   46  H41 UNL     1      -6.441  38.816 -16.103  1.00  0.00     0.209 HD
ENDBRANCH  44  45
ENDBRANCH  43  44
BRANCH  43  47
HETATM   47  C37 UNL     1      -3.139  41.193 -15.295  1.00  0.00     0.045 C 
BRANCH  47  48
HETATM   48  C38 UNL     1      -1.832  41.501 -15.994  1.00  0.00    -0.058 A 
HETATM   49  C39 UNL     1      -0.963  42.473 -15.479  1.00  0.00     0.007 A 
HETATM   50  C40 UNL     1       0.237  42.767 -16.130  1.00  0.00     0.001 A 
HETATM   51  C41 UNL     1       0.577  42.095 -17.303  1.00  0.00     0.000 A 
HETATM   52  C42 UNL     1      -0.281  41.125 -17.822  1.00  0.00     0.001 A 
HETATM   53  C43 UNL     1      -1.481  40.831 -17.173  1.00  0.00     0.007 A 
ENDBRANCH  47  48
ENDBRANCH  43  47
ENDBRANCH  42  43
ENDBRANCH  31  42
BRANCH  31  54
HETATM   54  N1  UNL     1      -4.775  41.409 -19.011  1.00  0.00    -0.336 N 
HETATM   55  C44 UNL     1      -5.496  40.611 -19.690  1.00  0.00     0.124 C 
HETATM   56  N2  UNL     1      -4.919  39.848 -20.646  1.00  0.00    -0.279 NA
HETATM   57  N3  UNL     1      -6.820  40.372 -19.658  1.00  0.00    -0.279 NA
HETATM   58  H49 UNL     1      -5.432  39.898 -21.521  1.00  0.00     0.126 HD
HETATM   59  H50 UNL     1      -3.960  40.151 -20.792  1.00  0.00     0.126 HD
HETATM   60  H51 UNL     1      -7.078  39.405 -19.788  1.00  0.00     0.126 HD
HETATM   61  H52 UNL     1      -7.316  40.834 -18.897  1.00  0.00     0.126 HD
ATOM     62  H1  UNL     1      -3.776  41.456 -19.219  1.00  0.00     0.165 HD
ENDBRANCH  31  54
BRANCH   1  63
HETATM   63  C2  UNL     1      -8.352  48.830 -19.702  1.00  0.00     0.005 C 
HETATM   64  C1  UNL     1      -9.709  48.164 -19.901  1.00  0.00     0.006 C 
ENDBRANCH   1  63
BRANCH   3  65
HETATM   65  S1  UNL     1      -4.294  48.391 -22.005  1.00  0.00     0.106 S 
HETATM   66  O1  UNL     1      -4.697  49.797 -22.095  1.00  0.00    -0.595 OA
HETATM   67  O2  UNL     1      -2.870  48.160 -22.243  1.00  0.00    -0.595 OA
HETATM   68  O3  UNL     1      -5.192  47.488 -22.724  1.00  0.00    -0.595 OA
ENDBRANCH   3  65
BRANCH  12  69
HETATM   69  C15 UNL     1      -0.200  52.274 -13.459  1.00  0.00     0.169 C 
BRANCH  69  70
HETATM   70  O4  UNL     1       0.685  53.129 -12.767  1.00  0.00    -0.400 OA
HETATM   71  H23 UNL     1       0.162  53.752 -12.241  1.00  0.00     0.209 HD
ENDBRANCH  69  70
ENDBRANCH  12  69
BRANCH  18  72
HETATM   72  O5  UNL     1       2.024  54.400 -21.392  1.00  0.00    -0.361 OA
HETATM   73  H27 UNL     1       1.572  54.501 -22.247  1.00  0.00     0.217 HD
ENDBRANCH  18  72
TORSDOF 12
ENDMDL
