MODEL 1
REMARK minimizedAffinity -8.84141445
REMARK  6 active torsions:
REMARK  status: ('A' for Active; 'I' for Inactive)
REMARK    1  A    between atoms: C2_2  and  C30_32 
REMARK    2  A    between atoms: C3_3  and  C4_4 
REMARK    3  A    between atoms: C4_4  and  C5_5 
REMARK    4  A    between atoms: C5_5  and  C6_6 
REMARK    5  A    between atoms: C6_6  and  C8_8 
REMARK    6  A    between atoms: C30_32  and  O3_33 
ROOT
HETATM    1  C8  UNL     1      -1.501   6.005  12.340  1.00  0.00    -0.002 C 
HETATM    2  C9  UNL     1      -1.967   6.857  13.551  1.00  0.00     0.007 C 
HETATM    3  C10 UNL     1      -0.864   7.899  13.817  1.00  0.00     0.015 C 
HETATM    4  C11 UNL     1       0.034   7.871  12.563  1.00  0.00    -0.005 C 
HETATM    5  C12 UNL     1      -0.648   8.778  11.492  1.00  0.00     0.021 C 
HETATM    6  C13 UNL     1       1.468   8.376  12.632  1.00  0.00    -0.000 C 
HETATM    7  C14 UNL     1       2.435   7.867  11.825  1.00  0.00    -0.060 C 
HETATM    8  C15 UNL     1       2.117   6.711  10.861  1.00  0.00     0.036 C 
HETATM    9  C16 UNL     1       0.690   6.123  10.888  1.00  0.00     0.015 C 
HETATM   10  C17 UNL     1       0.022   6.319  12.253  1.00  0.00    -0.028 C 
HETATM   11  C18 UNL     1       0.806   5.477  13.302  1.00  0.00     0.016 C 
HETATM   12  C19 UNL     1       3.907   8.372  11.835  1.00  0.00    -0.014 C 
HETATM   13  C20 UNL     1       4.737   7.325  12.610  1.00  0.00     0.020 C 
HETATM   14  C21 UNL     1       4.442   8.502  10.385  1.00  0.00     0.021 C 
HETATM   15  C22 UNL     1       5.725   9.308  10.204  1.00  0.00     0.080 C 
HETATM   16  C23 UNL     1       6.351   9.804  11.485  1.00  0.00     0.135 C 
HETATM   17  O1  UNL     1       7.578   9.810  11.600  1.00  0.00    -0.297 OA
HETATM   18  C24 UNL     1       5.431  10.408  12.553  1.00  0.00     0.018 C 
HETATM   19  C25 UNL     1       5.370  11.923  12.275  1.00  0.00     0.023 C 
HETATM   20  C26 UNL     1       6.094  10.216  13.935  1.00  0.00     0.023 C 
HETATM   21  C27 UNL     1       3.988   9.800  12.463  1.00  0.00     0.020 C 
HETATM   22  C28 UNL     1       3.226   9.860  13.786  1.00  0.00     0.090 C 
HETATM   23  C29 UNL     1       1.782   9.486  13.584  1.00  0.00     0.157 C 
HETATM   24  O2  UNL     1       0.900  10.066  14.211  1.00  0.00    -0.293 OA
ENDROOT
BRANCH   1  25
HETATM   25  C6  UNL     1      -2.081   4.558  12.327  1.00  0.00    -0.014 C 
HETATM   26  C7  UNL     1      -2.343   3.940  10.948  1.00  0.00     0.010 C 
BRANCH  25  27
HETATM   27  C5  UNL     1      -3.323   4.440  13.245  1.00  0.00     0.008 C 
BRANCH  27  28
HETATM   28  C4  UNL     1      -4.565   5.210  12.762  1.00  0.00     0.028 C 
BRANCH  28  29
HETATM   29  C3  UNL     1      -5.871   4.546  13.102  1.00  0.00    -0.022 C 
HETATM   30  C2  UNL     1      -6.429   3.452  12.537  1.00  0.00    -0.064 C 
HETATM   31  C1  UNL     1      -5.821   2.676  11.398  1.00  0.00     0.045 C 
BRANCH  30  32
HETATM   32  C30 UNL     1      -7.767   2.890  12.970  1.00  0.00     0.197 C 
BRANCH  32  33
HETATM   33  O3  UNL     1      -7.919   1.520  12.626  1.00  0.00    -0.397 OA
HETATM   34  H46 UNL     1      -7.871   1.478  11.655  1.00  0.00     0.209 HD
ENDBRANCH  32  33
ENDBRANCH  30  32
ENDBRANCH  28  29
ENDBRANCH  27  28
ENDBRANCH  25  27
ENDBRANCH   1  25
TORSDOF 6
ENDMDL
