MODEL 1
REMARK minimizedAffinity -9.71055984
REMARK  8 active torsions:
REMARK  status: ('A' for Active; 'I' for Inactive)
REMARK    1  A    between atoms: C2_2  and  C3_3 
REMARK    2  A    between atoms: C2_2  and  C9_11 
REMARK    3  A    between atoms: C3_3  and  C4_4 
REMARK    4  A    between atoms: C4_4  and  O1_5 
REMARK    5  A    between atoms: C4_4  and  C5_6 
REMARK    6  A    between atoms: C20_22  and  O3_23 
REMARK    7  A    between atoms: C23_27  and  C25_29 
REMARK    8  A    between atoms: C25_29  and  O5_30 
ROOT
HETATM    1  C9  UNL     1      -0.747  52.113 -20.915  1.00  0.00    -0.002 C 
HETATM    2  C10 UNL     1      -0.109  51.124 -19.896  1.00  0.00     0.007 C 
HETATM    3  C11 UNL     1      -1.125  49.985 -19.680  1.00  0.00     0.015 C 
HETATM    4  C12 UNL     1      -2.451  50.524 -20.257  1.00  0.00    -0.013 C 
HETATM    5  C13 UNL     1      -3.077  51.421 -19.140  1.00  0.00     0.021 C 
HETATM    6  C14 UNL     1      -3.537  49.523 -20.638  1.00  0.00    -0.070 C 
HETATM    7  C15 UNL     1      -3.696  48.356 -19.992  1.00  0.00    -0.022 C 
HETATM    8  C16 UNL     1      -4.821  47.398 -20.230  1.00  0.00     0.034 C 
HETATM    9  C17 UNL     1      -5.699  47.706 -21.467  1.00  0.00     0.018 C 
HETATM   10  C18 UNL     1      -5.920  49.256 -21.672  1.00  0.00    -0.005 C 
HETATM   11  C19 UNL     1      -6.719  49.861 -20.490  1.00  0.00     0.019 C 
HETATM   12  C20 UNL     1      -6.664  49.507 -23.035  1.00  0.00     0.134 C 
HETATM   13  C21 UNL     1      -7.501  48.348 -23.559  1.00  0.00     0.111 C 
HETATM   14  C22 UNL     1      -8.036  47.497 -22.443  1.00  0.00     0.140 C 
HETATM   15  O4  UNL     1      -9.243  47.273 -22.359  1.00  0.00    -0.297 OA
HETATM   16  C23 UNL     1      -7.009  46.828 -21.526  1.00  0.00     0.043 C 
HETATM   17  C24 UNL     1      -6.671  45.469 -22.183  1.00  0.00     0.026 C 
HETATM   18  C26 UNL     1      -4.481  49.925 -21.773  1.00  0.00     0.026 C 
HETATM   19  C27 UNL     1      -4.481  51.452 -22.042  1.00  0.00     0.011 C 
HETATM   20  C28 UNL     1      -3.089  52.127 -22.114  1.00  0.00     0.011 C 
HETATM   21  C29 UNL     1      -1.931  51.294 -21.525  1.00  0.00    -0.029 C 
HETATM   22  C30 UNL     1      -1.381  50.348 -22.632  1.00  0.00     0.016 C 
ENDROOT
BRANCH   1  23
HETATM   23  C2  UNL     1       0.292  52.886 -21.786  1.00  0.00    -0.011 C 
HETATM   24  C1  UNL     1       1.577  53.341 -21.086  1.00  0.00     0.010 C 
BRANCH  23  25
HETATM   25  C3  UNL     1       0.597  52.124 -23.101  1.00  0.00     0.039 C 
BRANCH  25  26
HETATM   26  C4  UNL     1       0.418  52.958 -24.382  1.00  0.00     0.150 C 
BRANCH  26  27
HETATM   27  O1  UNL     1       1.255  54.112 -24.328  1.00  0.00    -0.393 OA
HETATM   28  H8  UNL     1       2.150  53.855 -24.600  1.00  0.00     0.210 HD
ENDBRANCH  26  27
BRANCH  26  29
HETATM   29  C5  UNL     1       0.785  52.141 -25.589  1.00  0.00     0.185 A 
HETATM   30  O2  UNL     1       1.805  52.710 -26.423  1.00  0.00    -0.367 OA
HETATM   31  C6  UNL     1       0.505  52.578 -27.020  1.00  0.00     0.083 A 
HETATM   32  C7  UNL     1       0.434  51.527 -28.085  1.00  0.00     0.048 C 
HETATM   33  C8  UNL     1      -0.157  53.884 -27.330  1.00  0.00     0.048 C 
ENDBRANCH  26  29
ENDBRANCH  25  26
ENDBRANCH  23  25
ENDBRANCH   1  23
BRANCH  12  34
HETATM   34  O3  UNL     1      -7.473  50.681 -22.952  1.00  0.00    -0.394 OA
HETATM   35  H32 UNL     1      -7.867  50.850 -23.826  1.00  0.00     0.210 HD
ENDBRANCH  12  34
BRANCH  16  36
HETATM   36  C25 UNL     1      -7.697  46.560 -20.161  1.00  0.00     0.181 C 
BRANCH  36  37
HETATM   37  O5  UNL     1      -8.560  47.629 -19.774  1.00  0.00    -0.400 OA
HETATM   38  H40 UNL     1      -8.035  48.244 -19.231  1.00  0.00     0.209 HD
ENDBRANCH  36  37
ENDBRANCH  16  36
TORSDOF 8
ENDMDL
