MODEL 1
REMARK minimizedAffinity -7.88787985
REMARK CNNscore 0.831271887
REMARK CNNaffinity 6.75763321
REMARK  8 active torsions:
REMARK  status: ('A' for Active; 'I' for Inactive)
REMARK    1  A    between atoms: C2_2  and  C3_3 
REMARK    2  A    between atoms: C2_2  and  C9_12 
REMARK    3  A    between atoms: C3_3  and  C4_4 
REMARK    4  A    between atoms: C4_4  and  O1_5 
REMARK    5  A    between atoms: C4_4  and  C5_6 
REMARK    6  A    between atoms: C5_6  and  O2_7 
REMARK    7  A    between atoms: C5_6  and  C6_8 
REMARK    8  A    between atoms: C6_8  and  O3_11 
ROOT
HETATM    1  C9  UNL     1       1.347  54.689 -10.374  1.00  0.00    -0.001 C 
HETATM    2  C10 UNL     1       2.252  53.699 -11.165  1.00  0.00     0.007 C 
HETATM    3  C11 UNL     1       3.671  53.810 -10.569  1.00  0.00     0.015 C 
HETATM    4  C12 UNL     1       3.645  55.085  -9.697  1.00  0.00    -0.004 C 
HETATM    5  C13 UNL     1       3.891  56.297 -10.649  1.00  0.00     0.021 C 
HETATM    6  C14 UNL     1       4.640  55.287  -8.556  1.00  0.00     0.007 C 
HETATM    7  C15 UNL     1       4.335  55.998  -7.439  1.00  0.00     0.007 C 
HETATM    8  C16 UNL     1       2.947  56.616  -7.352  1.00  0.00     0.157 C 
HETATM    9  O4  UNL     1       2.676  57.423  -6.459  1.00  0.00    -0.293 OA
HETATM   10  C17 UNL     1       1.877  56.265  -8.372  1.00  0.00     0.094 C 
HETATM   11  C18 UNL     1       2.191  54.959  -9.096  1.00  0.00    -0.022 C 
HETATM   12  C19 UNL     1       2.067  53.767  -8.090  1.00  0.00     0.017 C 
HETATM   13  C20 UNL     1       5.305  56.253  -6.261  1.00  0.00    -0.007 C 
HETATM   14  C21 UNL     1       5.786  57.722  -6.373  1.00  0.00     0.021 C 
HETATM   15  C22 UNL     1       4.589  56.050  -4.884  1.00  0.00     0.022 C 
HETATM   16  C23 UNL     1       5.465  55.555  -3.736  1.00  0.00     0.080 C 
HETATM   17  C24 UNL     1       6.910  55.932  -3.926  1.00  0.00     0.135 C 
HETATM   18  O5  UNL     1       7.518  56.564  -3.065  1.00  0.00    -0.297 OA
HETATM   19  C25 UNL     1       7.584  55.411  -5.203  1.00  0.00     0.018 C 
HETATM   20  C26 UNL     1       8.743  56.346  -5.602  1.00  0.00     0.023 C 
HETATM   21  C27 UNL     1       8.202  54.043  -4.842  1.00  0.00     0.023 C 
HETATM   22  C28 UNL     1       6.494  55.228  -6.320  1.00  0.00     0.021 C 
HETATM   23  C29 UNL     1       7.087  55.150  -7.727  1.00  0.00     0.090 C 
HETATM   24  C30 UNL     1       6.031  54.763  -8.731  1.00  0.00     0.157 C 
HETATM   25  O6  UNL     1       6.335  54.074  -9.702  1.00  0.00    -0.293 OA
ENDROOT
BRANCH   1  26
HETATM   26  C2  UNL     1      -0.142  54.220 -10.354  1.00  0.00    -0.011 C 
HETATM   27  C1  UNL     1      -1.227  55.280 -10.159  1.00  0.00     0.010 C 
BRANCH  26  28
HETATM   28  C3  UNL     1      -0.470  53.349 -11.612  1.00  0.00     0.039 C 
BRANCH  28  29
HETATM   29  C4  UNL     1      -1.010  51.927 -11.320  1.00  0.00     0.150 C 
BRANCH  29  30
HETATM   30  O1  UNL     1      -0.830  51.638  -9.934  1.00  0.00    -0.393 OA
HETATM   31  H8  UNL     1      -1.400  50.868  -9.719  1.00  0.00     0.210 HD
ENDBRANCH  29  30
BRANCH  29  32
HETATM   32  C5  UNL     1      -2.497  51.752 -11.756  1.00  0.00     0.180 C 
BRANCH  32  33
HETATM   33  O2  UNL     1      -2.785  52.628 -12.857  1.00  0.00    -0.390 OA
HETATM   34  H10 UNL     1      -2.442  52.221 -13.673  1.00  0.00     0.210 HD
ENDBRANCH  32  33
BRANCH  32  35
HETATM   35  C6  UNL     1      -3.527  52.092 -10.634  1.00  0.00     0.079 C 
HETATM   36  C7  UNL     1      -4.174  53.465 -10.874  1.00  0.00     0.048 C 
HETATM   37  C8  UNL     1      -4.624  51.035 -10.485  1.00  0.00     0.048 C 
BRANCH  35  38
HETATM   38  O3  UNL     1      -2.818  52.166  -9.388  1.00  0.00    -0.388 OA
HETATM   39  H17 UNL     1      -2.086  52.801  -9.553  1.00  0.00     0.210 HD
ENDBRANCH  35  38
ENDBRANCH  32  35
ENDBRANCH  29  32
ENDBRANCH  28  29
ENDBRANCH  26  28
ENDBRANCH   1  26
TORSDOF 8
ENDMDL
