MODEL 1
REMARK minimizedAffinity -7.65657139
REMARK CNNscore 0.63209033
REMARK CNNaffinity 6.76072264
REMARK  12 active torsions:
REMARK  status: ('A' for Active; 'I' for Inactive)
REMARK    1  A    between atoms: O1_2  and  C2_3 
REMARK    2  A    between atoms: C4_5  and  O2_6 
REMARK    3  A    between atoms: O2_6  and  C5_7 
REMARK    4  A    between atoms: C8_10  and  C9_11 
REMARK    5  A    between atoms: N1_12  and  C10_14 
REMARK    6  A    between atoms: C10_14  and  C11_15 
REMARK    7  A    between atoms: C11_15  and  C12_16 
REMARK    8  A    between atoms: C12_16  and  O3_17 
REMARK    9  A    between atoms: C18_23  and  C19_24 
REMARK   10  A    between atoms: C25_32  and  O6_33 
REMARK   11  A    between atoms: C29_37  and  O7_38 
REMARK   12  A    between atoms: C33_43  and  O9_44 
ROOT
HETATM    1  C5  UNL     1      -7.213  48.227 -25.290  1.00  0.00     0.127 C 
HETATM    2  C6  UNL     1      -8.596  48.642 -24.824  1.00  0.00     0.033 C 
HETATM    3  C7  UNL     1      -9.541  48.737 -26.004  1.00  0.00     0.021 C 
HETATM    4  C8  UNL     1      -9.664  47.429 -26.864  1.00  0.00     0.026 C 
HETATM    5  C13 UNL     1     -11.147  46.891 -26.669  1.00  0.00     0.009 C 
HETATM    6  C14 UNL     1     -12.188  47.677 -27.469  1.00  0.00     0.007 C 
HETATM    7  C15 UNL     1     -13.568  47.297 -26.966  1.00  0.00     0.013 C 
HETATM    8  C16 UNL     1     -13.936  45.838 -27.285  1.00  0.00    -0.005 C 
HETATM    9  C17 UNL     1     -14.408  45.809 -28.766  1.00  0.00     0.019 C 
HETATM   10  C18 UNL     1     -15.137  45.306 -26.393  1.00  0.00     0.028 C 
HETATM   11  C23 UNL     1     -14.753  43.860 -26.094  1.00  0.00     0.013 C 
HETATM   12  C24 UNL     1     -13.243  43.920 -25.902  1.00  0.00     0.040 C 
HETATM   13  C25 UNL     1     -12.746  44.809 -27.054  1.00  0.00     0.070 C 
HETATM   14  C26 UNL     1     -11.288  45.376 -26.932  1.00  0.00     0.026 C 
HETATM   15  C27 UNL     1     -10.399  44.591 -25.927  1.00  0.00     0.011 C 
HETATM   16  C28 UNL     1      -9.200  45.382 -25.394  1.00  0.00     0.039 C 
HETATM   17  C29 UNL     1      -8.601  46.326 -26.456  1.00  0.00     0.073 C 
HETATM   18  C30 UNL     1      -7.226  46.861 -25.991  1.00  0.00     0.071 C 
ENDROOT
BRANCH   1  19
HETATM   19  O2  UNL     1      -6.358  48.251 -24.143  1.00  0.00    -0.356 OA
BRANCH  19  20
HETATM   20  C4  UNL     1      -5.037  48.700 -24.429  1.00  0.00     0.263 C 
HETATM   21  C3  UNL     1      -4.770  48.418 -25.904  1.00  0.00     0.095 C 
HETATM   22  C2  UNL     1      -3.378  48.903 -26.276  1.00  0.00     0.156 C 
HETATM   23  C33 UNL     1      -3.232  50.390 -25.921  1.00  0.00     0.175 C 
HETATM   24  C31 UNL     1      -3.604  50.602 -24.447  1.00  0.00     0.151 C 
HETATM   25  O8  UNL     1      -4.915  50.097 -24.171  1.00  0.00    -0.354 OA
HETATM   26  C32 UNL     1      -3.589  52.081 -24.075  1.00  0.00     0.042 C 
BRANCH  22  27
HETATM   27  O1  UNL     1      -3.215  48.726 -27.694  1.00  0.00    -0.388 OA
HETATM   28  C1  UNL     1      -4.431  48.398 -28.356  1.00  0.00     0.202 C 
ENDBRANCH  22  27
BRANCH  23  29
HETATM   29  O9  UNL     1      -1.883  50.803 -26.172  1.00  0.00    -0.390 OA
HETATM   30  H51 UNL     1      -1.742  50.657 -27.126  1.00  0.00     0.210 HD
ENDBRANCH  23  29
ENDBRANCH  19  20
ENDBRANCH   1  19
BRANCH  17  31
HETATM   31  O7  UNL     1      -8.331  45.411 -27.546  1.00  0.00    -0.389 OA
HETATM   32  H43 UNL     1      -8.072  45.955 -28.318  1.00  0.00     0.210 HD
ENDBRANCH  17  31
BRANCH   4  33
HETATM   33  C9  UNL     1      -9.433  47.933 -28.314  1.00  0.00     0.068 C 
HETATM   34  N1  UNL     1      -8.252  48.133 -28.789  1.00  0.00    -0.401 N 
ATOM     35  H1  UNL     1      -7.412  47.894 -28.260  1.00  0.00     0.158 HD
BRANCH  34  36
HETATM   36  C10 UNL     1      -8.180  48.721 -30.127  1.00  0.00     0.121 C 
BRANCH  36  37
HETATM   37  C11 UNL     1      -7.088  47.997 -30.926  1.00  0.00     0.045 C 
BRANCH  37  38
HETATM   38  C12 UNL     1      -7.312  46.495 -30.948  1.00  0.00     0.165 C 
BRANCH  38  39
HETATM   39  O3  UNL     1      -6.649  45.865 -29.855  1.00  0.00    -0.401 OA
HETATM   40  H20 UNL     1      -6.955  46.298 -29.039  1.00  0.00     0.209 HD
ENDBRANCH  38  39
ENDBRANCH  37  38
ENDBRANCH  36  37
ENDBRANCH  34  36
ENDBRANCH   4  33
BRANCH  13  41
HETATM   41  O6  UNL     1     -12.696  43.893 -28.181  1.00  0.00    -0.389 OA
HETATM   42  H37 UNL     1     -11.956  43.276 -28.040  1.00  0.00     0.210 HD
ENDBRANCH  13  41
BRANCH  10  43
HETATM   43  C19 UNL     1     -15.494  46.068 -25.135  1.00  0.00    -0.045 A 
HETATM   44  C20 UNL     1     -14.617  46.566 -24.255  1.00  0.00     0.087 A 
HETATM   45  C21 UNL     1     -15.387  47.205 -23.194  1.00  0.00     0.283 A 
HETATM   46  O4  UNL     1     -14.903  47.735 -22.214  1.00  0.00    -0.260 OA
HETATM   47  O5  UNL     1     -16.715  47.095 -23.468  1.00  0.00    -0.314 OA
HETATM   48  C22 UNL     1     -16.876  46.402 -24.707  1.00  0.00     0.213 A 
ENDBRANCH  10  43
TORSDOF 12
ENDMDL
