MODEL 1
REMARK minimizedAffinity -7.86564302
REMARK CNNscore 0.502071083
REMARK CNNaffinity 7.10643244
REMARK  11 active torsions:
REMARK  status: ('A' for Active; 'I' for Inactive)
REMARK    1  A    between atoms: C3_4  and  O2_5 
REMARK    2  A    between atoms: O2_5  and  C4_6 
REMARK    3  A    between atoms: C7_9  and  C8_10 
REMARK    4  A    between atoms: N1_11  and  C9_13 
REMARK    5  A    between atoms: C9_13  and  C10_14 
REMARK    6  A    between atoms: C10_14  and  C11_15 
REMARK    7  A    between atoms: C22_26  and  C23_27 
REMARK    8  A    between atoms: C29_35  and  O5_36 
REMARK    9  A    between atoms: C33_40  and  O6_41 
REMARK   10  A    between atoms: C36_44  and  O7_45 
REMARK   11  A    between atoms: C37_46  and  O8_47 
ROOT
HETATM    1  C4  UNL     1      -4.751  14.210  16.926  1.00  0.00     0.127 C 
HETATM    2  C5  UNL     1      -4.914  12.698  16.751  1.00  0.00     0.033 C 
HETATM    3  C6  UNL     1      -3.732  11.946  17.345  1.00  0.00     0.021 C 
HETATM    4  C7  UNL     1      -2.357  12.290  16.670  1.00  0.00     0.026 C 
HETATM    5  C17 UNL     1      -1.256  12.300  17.802  1.00  0.00     0.009 C 
HETATM    6  C18 UNL     1      -1.048  10.919  18.457  1.00  0.00     0.007 C 
HETATM    7  C19 UNL     1      -0.044  10.971  19.610  1.00  0.00     0.013 C 
HETATM    8  C20 UNL     1       1.350  11.498  19.181  1.00  0.00    -0.005 C 
HETATM    9  C21 UNL     1       2.074  10.448  18.316  1.00  0.00     0.019 C 
HETATM   10  C22 UNL     1       2.244  11.924  20.396  1.00  0.00     0.028 C 
HETATM   11  C27 UNL     1       1.647  13.279  20.823  1.00  0.00     0.013 C 
HETATM   12  C28 UNL     1       0.956  13.868  19.589  1.00  0.00     0.040 C 
HETATM   13  C29 UNL     1       1.189  12.863  18.443  1.00  0.00     0.070 C 
HETATM   14  C30 UNL     1       0.099  12.880  17.338  1.00  0.00     0.026 C 
HETATM   15  C31 UNL     1      -0.098  14.295  16.770  1.00  0.00     0.011 C 
HETATM   16  C32 UNL     1      -1.057  14.288  15.594  1.00  0.00     0.039 C 
HETATM   17  C33 UNL     1      -2.435  13.669  15.905  1.00  0.00     0.073 C 
HETATM   18  C34 UNL     1      -3.303  14.683  16.691  1.00  0.00     0.071 C 
ENDROOT
BRANCH   1  19
HETATM   19  O2  UNL     1      -5.652  14.835  16.010  1.00  0.00    -0.356 OA
BRANCH  19  20
HETATM   20  C3  UNL     1      -6.992  14.356  16.075  1.00  0.00     0.263 C 
HETATM   21  O1  UNL     1      -7.763  15.030  17.065  1.00  0.00    -0.354 OA
HETATM   22  C2  UNL     1      -9.082  14.496  17.239  1.00  0.00     0.151 C 
HETATM   23  C1  UNL     1      -9.076  13.526  18.418  1.00  0.00     0.042 C 
HETATM   24  C37 UNL     1      -9.660  13.842  15.970  1.00  0.00     0.175 C 
HETATM   25  C36 UNL     1      -9.135  14.581  14.740  1.00  0.00     0.154 C 
HETATM   26  C35 UNL     1      -7.613  14.567  14.693  1.00  0.00     0.095 C 
BRANCH  24  27
HETATM   27  O8  UNL     1     -11.094  13.880  15.959  1.00  0.00    -0.390 OA
HETATM   28  H55 UNL     1     -11.408  13.318  16.688  1.00  0.00     0.210 HD
ENDBRANCH  24  27
BRANCH  25  29
HETATM   29  O7  UNL     1      -9.661  13.972  13.556  1.00  0.00    -0.393 OA
HETATM   30  H53 UNL     1     -10.628  13.931  13.701  1.00  0.00     0.210 HD
ENDBRANCH  25  29
ENDBRANCH  19  20
ENDBRANCH   1  19
BRANCH  17  31
HETATM   31  O6  UNL     1      -3.083  13.506  14.631  1.00  0.00    -0.389 OA
HETATM   32  H47 UNL     1      -2.510  12.916  14.099  1.00  0.00     0.210 HD
ENDBRANCH  17  31
BRANCH   4  33
HETATM   33  C8  UNL     1      -2.054  11.142  15.688  1.00  0.00     0.068 C 
HETATM   34  N1  UNL     1      -2.839  10.125  15.566  1.00  0.00    -0.401 N 
ATOM     35  H1  UNL     1      -3.705  10.037  16.097  1.00  0.00     0.158 HD
BRANCH  34  36
HETATM   36  C9  UNL     1      -2.399   9.100  14.606  1.00  0.00     0.123 C 
BRANCH  36  37
HETATM   37  C10 UNL     1      -2.604   7.716  15.233  1.00  0.00     0.053 C 
BRANCH  37  38
HETATM   38  C11 UNL     1      -3.540   6.832  14.440  1.00  0.00    -0.082 C 
HETATM   39  C12 UNL     1      -3.073   5.916  13.569  1.00  0.00    -0.024 C 
HETATM   40  C13 UNL     1      -3.950   5.011  12.752  1.00  0.00     0.027 C 
HETATM   41  C14 UNL     1      -5.410   5.012  13.209  1.00  0.00     0.004 C 
HETATM   42  C15 UNL     1      -5.884   6.423  13.538  1.00  0.00     0.005 C 
HETATM   43  C16 UNL     1      -5.021   7.052  14.636  1.00  0.00     0.034 C 
ENDBRANCH  37  38
ENDBRANCH  36  37
ENDBRANCH  34  36
ENDBRANCH   4  33
BRANCH  13  44
HETATM   44  O5  UNL     1       2.444  13.238  17.850  1.00  0.00    -0.389 OA
HETATM   45  H41 UNL     1       2.536  12.775  16.999  1.00  0.00     0.210 HD
ENDBRANCH  13  44
BRANCH  10  46
HETATM   46  C23 UNL     1       2.488  11.006  21.563  1.00  0.00    -0.045 A 
HETATM   47  C24 UNL     1       2.338   9.686  21.680  1.00  0.00     0.087 A 
HETATM   48  C25 UNL     1       2.779   9.312  23.023  1.00  0.00     0.283 A 
HETATM   49  O3  UNL     1       2.760   8.179  23.466  1.00  0.00    -0.260 OA
HETATM   50  O4  UNL     1       3.200  10.422  23.682  1.00  0.00    -0.314 OA
HETATM   51  C26 UNL     1       3.053  11.552  22.826  1.00  0.00     0.213 A 
ENDBRANCH  10  46
TORSDOF 11
ENDMDL
