MODEL 1
REMARK minimizedAffinity -8.17115879
REMARK CNNscore 0.792697549
REMARK CNNaffinity 6.11432648
REMARK  12 active torsions:
REMARK  status: ('A' for Active; 'I' for Inactive)
REMARK    1  A    between atoms: C2_2  and  O1_3 
REMARK    2  A    between atoms: C2_2  and  C3_4 
REMARK    3  A    between atoms: C4_5  and  C5_6 
REMARK    4  A    between atoms: C5_6  and  O2_7 
REMARK    5  A    between atoms: C8_10  and  O3_11 
REMARK    6  A    between atoms: O3_11  and  C9_12 
REMARK    7  A    between atoms: C10_14  and  C11_15 
REMARK    8  A    between atoms: C11_15  and  O5_16 
REMARK    9  A    between atoms: C12_17  and  O6_18 
REMARK   10  A    between atoms: C13_19  and  O7_20 
REMARK   11  A    between atoms: C14_21  and  O8_22 
REMARK   12  A    between atoms: C15_23  and  O9_24 
ROOT
HETATM    1  C5  UNL     1      -0.925  51.768 -25.067  1.00  0.00     0.088 C 
HETATM    2  C6  UNL     1      -1.765  50.460 -25.133  1.00  0.00     0.052 C 
HETATM    3  C7  UNL     1      -2.458  50.097 -23.806  1.00  0.00     0.016 C 
HETATM    4  C8  UNL     1      -2.851  50.567 -26.235  1.00  0.00     0.160 C 
HETATM    5  C15 UNL     1      -2.395  51.397 -27.461  1.00  0.00     0.148 C 
HETATM    6  C16 UNL     1      -0.878  51.368 -27.633  1.00  0.00     0.046 C 
HETATM    7  C17 UNL     1      -0.093  51.935 -26.413  1.00  0.00    -0.010 C 
HETATM    8  C18 UNL     1       0.235  53.423 -26.689  1.00  0.00     0.018 C 
HETATM    9  C19 UNL     1       1.259  51.175 -26.380  1.00  0.00     0.018 C 
ENDROOT
BRANCH   4  10
HETATM   10  O3  UNL     1      -3.178  49.232 -26.673  1.00  0.00    -0.350 OA
BRANCH  10  11
HETATM   11  C9  UNL     1      -4.594  49.006 -26.699  1.00  0.00     0.292 C 
HETATM   12  O4  UNL     1      -4.975  48.355 -25.488  1.00  0.00    -0.348 OA
HETATM   13  C10 UNL     1      -6.374  48.058 -25.431  1.00  0.00     0.179 C 
HETATM   14  C12 UNL     1      -6.756  47.092 -26.563  1.00  0.00     0.180 C 
HETATM   15  C13 UNL     1      -6.386  47.720 -27.908  1.00  0.00     0.183 C 
HETATM   16  C14 UNL     1      -4.915  48.133 -27.933  1.00  0.00     0.204 C 
BRANCH  13  17
HETATM   17  C11 UNL     1      -6.702  47.454 -24.059  1.00  0.00     0.198 C 
BRANCH  17  18
HETATM   18  O5  UNL     1      -5.629  47.611 -23.135  1.00  0.00    -0.398 OA
HETATM   19  H18 UNL     1      -5.300  48.531 -23.234  1.00  0.00     0.209 HD
ENDBRANCH  17  18
ENDBRANCH  13  17
BRANCH  14  20
HETATM   20  O6  UNL     1      -8.158  46.797 -26.543  1.00  0.00    -0.390 OA
HETATM   21  H20 UNL     1      -8.337  46.366 -27.406  1.00  0.00     0.210 HD
ENDBRANCH  14  20
BRANCH  15  22
HETATM   22  O7  UNL     1      -6.664  46.778 -28.956  1.00  0.00    -0.390 OA
HETATM   23  H22 UNL     1      -6.184  47.111 -29.742  1.00  0.00     0.210 HD
ENDBRANCH  15  22
BRANCH  16  24
HETATM   24  O8  UNL     1      -4.663  48.809 -29.180  1.00  0.00    -0.388 OA
HETATM   25  H24 UNL     1      -4.833  49.765 -29.051  1.00  0.00     0.210 HD
ENDBRANCH  16  24
ENDBRANCH  10  11
ENDBRANCH   4  10
BRANCH   5  26
HETATM   26  O9  UNL     1      -3.000  50.887 -28.661  1.00  0.00    -0.393 OA
HETATM   27  H26 UNL     1      -2.620  49.990 -28.765  1.00  0.00     0.210 HD
ENDBRANCH   5  26
BRANCH   1  28
HETATM   28  C4  UNL     1      -0.036  51.801 -23.830  1.00  0.00     0.010 C 
HETATM   29  C3  UNL     1      -0.033  52.699 -22.826  1.00  0.00     0.003 C 
BRANCH  29  30
HETATM   30  C2  UNL     1       0.865  52.615 -21.627  1.00  0.00     0.136 C 
HETATM   31  C1  UNL     1       1.278  53.998 -21.147  1.00  0.00     0.043 C 
BRANCH  30  32
HETATM   32  O1  UNL     1       0.126  51.964 -20.600  1.00  0.00    -0.392 OA
HETATM   33  H5  UNL     1       0.725  51.854 -19.842  1.00  0.00     0.210 HD
ENDBRANCH  30  32
ENDBRANCH  29  30
ENDBRANCH   1  28
BRANCH   1  34
HETATM   34  O2  UNL     1      -1.882  52.835 -24.980  1.00  0.00    -0.385 OA
HETATM   35  H8  UNL     1      -1.403  53.655 -24.775  1.00  0.00     0.211 HD
ENDBRANCH   1  34
TORSDOF 12
ENDMDL
