MODEL 1
REMARK minimizedAffinity -8.96789074
REMARK CNNscore 0.557010829
REMARK CNNaffinity 6.64587069
REMARK  15 active torsions:
REMARK  status: ('A' for Active; 'I' for Inactive)
REMARK    1  A    between atoms: N1_2  and  C2_3 
REMARK    2  A    between atoms: C2_3  and  C3_4 
REMARK    3  A    between atoms: C3_4  and  C4_5 
REMARK    4  A    between atoms: C4_5  and  C5_6 
REMARK    5  A    between atoms: C4_5  and  C6_9 
REMARK    6  A    between atoms: C5_6  and  O2_8 
REMARK    7  A    between atoms: C6_9  and  C7_11 
REMARK    8  A    between atoms: C7_11  and  O4_12 
REMARK    9  A    between atoms: C7_11  and  C8_13 
REMARK   10  A    between atoms: C8_13  and  C9_14 
REMARK   11  A    between atoms: C9_14  and  C11_16 
REMARK   12  A    between atoms: C13_18  and  O5_19 
REMARK   13  A    between atoms: C16_22  and  O6_23 
REMARK   14  A    between atoms: C34_43  and  C35_44 
REMARK   15  A    between atoms: C36_45  and  C37_46 
ROOT
HETATM    1  C11 UNL     1     -14.112  44.460 -26.700  1.00  0.00     0.002 C 
HETATM    2  C12 UNL     1     -14.214  46.017 -26.452  1.00  0.00     0.049 C 
HETATM    3  C13 UNL     1     -12.791  46.532 -26.720  1.00  0.00     0.088 C 
HETATM    4  C14 UNL     1     -12.448  47.953 -27.025  1.00  0.00     0.011 C 
HETATM    5  C15 UNL     1     -11.253  48.190 -27.617  1.00  0.00     0.015 C 
HETATM    6  C16 UNL     1     -10.258  47.063 -27.976  1.00  0.00     0.108 C 
HETATM    7  C17 UNL     1     -10.961  45.758 -28.373  1.00  0.00    -0.018 C 
HETATM    8  C18 UNL     1     -10.406  44.768 -29.123  1.00  0.00     0.003 C 
HETATM    9  C19 UNL     1     -11.289  43.558 -29.454  1.00  0.00     0.157 C 
HETATM   10  O7  UNL     1     -10.988  42.782 -30.360  1.00  0.00    -0.293 OA
HETATM   11  C20 UNL     1     -12.634  43.324 -28.711  1.00  0.00     0.094 C 
HETATM   12  C21 UNL     1     -12.754  44.221 -27.478  1.00  0.00    -0.019 C 
HETATM   13  C22 UNL     1     -11.772  43.558 -26.435  1.00  0.00     0.017 C 
HETATM   14  C23 UNL     1     -12.399  45.659 -27.941  1.00  0.00     0.026 C 
HETATM   15  C24 UNL     1     -13.206  46.140 -29.216  1.00  0.00     0.025 C 
HETATM   16  C25 UNL     1      -8.971  44.955 -29.671  1.00  0.00    -0.007 C 
HETATM   17  C26 UNL     1      -7.992  44.620 -28.519  1.00  0.00     0.021 C 
HETATM   18  C27 UNL     1      -8.521  44.032 -30.844  1.00  0.00     0.022 C 
HETATM   19  C28 UNL     1      -8.951  44.542 -32.206  1.00  0.00     0.080 C 
HETATM   20  C29 UNL     1      -8.198  45.821 -32.502  1.00  0.00     0.135 C 
HETATM   21  O8  UNL     1      -7.834  46.066 -33.655  1.00  0.00    -0.297 OA
HETATM   22  C30 UNL     1      -7.930  46.796 -31.327  1.00  0.00     0.018 C 
HETATM   23  C31 UNL     1      -8.178  48.216 -31.889  1.00  0.00     0.023 C 
HETATM   24  C32 UNL     1      -6.447  46.685 -30.951  1.00  0.00     0.023 C 
HETATM   25  C33 UNL     1      -8.957  46.462 -30.179  1.00  0.00     0.025 C 
HETATM   26  C34 UNL     1      -9.199  47.538 -29.055  1.00  0.00     0.057 C 
ENDROOT
BRANCH   1  27
HETATM   27  C9  UNL     1     -15.407  43.730 -27.148  1.00  0.00    -0.011 C 
HETATM   28  C10 UNL     1     -16.257  44.461 -28.193  1.00  0.00     0.010 C 
BRANCH  27  29
HETATM   29  C8  UNL     1     -16.289  43.434 -25.901  1.00  0.00     0.044 C 
BRANCH  29  30
HETATM   30  C7  UNL     1     -17.452  44.418 -25.709  1.00  0.00     0.188 C 
BRANCH  30  31
HETATM   31  C6  UNL     1     -17.382  45.009 -24.288  1.00  0.00     0.169 C 
HETATM   32  O3  UNL     1     -16.312  45.016 -23.669  1.00  0.00    -0.294 OA
BRANCH  31  33
HETATM   33  C4  UNL     1     -18.668  45.554 -23.685  1.00  0.00     0.157 C 
BRANCH  33  34
HETATM   34  C3  UNL     1     -18.434  46.297 -22.357  1.00  0.00     0.053 C 
BRANCH  34  35
HETATM   35  C2  UNL     1     -19.016  45.581 -21.132  1.00  0.00     0.270 C 
BRANCH  35  36
HETATM   36  N1  UNL     1     -18.464  46.027 -19.849  1.00  0.00     0.079 N 
HETATM   37  C1  UNL     1     -17.221  46.775 -20.010  1.00  0.00     0.306 C 
HETATM   38  H4  UNL     1     -18.265  45.196 -19.285  1.00  0.00     0.315 HD
ENDBRANCH  35  36
ENDBRANCH  34  35
ENDBRANCH  33  34
BRANCH  33  39
HETATM   39  C5  UNL     1     -19.355  46.496 -24.636  1.00  0.00     0.151 C 
HETATM   40  O1  UNL     1     -20.378  46.293 -25.266  1.00  0.00    -0.649 OA
BRANCH  39  41
HETATM   41  O2  UNL     1     -18.691  47.662 -24.778  1.00  0.00    -0.776 OA
HETATM   42  H10 UNL     1     -19.242  48.179 -25.403  1.00  0.00     0.167 HD
ENDBRANCH  39  41
ENDBRANCH  33  39
ENDBRANCH  31  33
ENDBRANCH  30  31
BRANCH  30  43
HETATM   43  O4  UNL     1     -17.453  45.389 -26.738  1.00  0.00    -0.388 OA
HETATM   44  H12 UNL     1     -18.355  45.754 -26.803  1.00  0.00     0.210 HD
ENDBRANCH  30  43
ENDBRANCH  29  30
ENDBRANCH  27  29
ENDBRANCH   1  27
BRANCH   3  45
HETATM   45  O5  UNL     1     -12.006  46.238 -25.559  1.00  0.00    -0.385 OA
HETATM   46  H22 UNL     1     -12.249  46.902 -24.877  1.00  0.00     0.211 HD
ENDBRANCH   3  45
BRANCH   6  47
HETATM   47  O6  UNL     1      -9.603  46.786 -26.730  1.00  0.00    -0.380 OA
HETATM   48  H25 UNL     1     -10.272  46.372 -26.144  1.00  0.00     0.211 HD
ENDBRANCH   6  47
BRANCH  26  49
HETATM   49  C35 UNL     1      -7.941  48.076 -28.399  1.00  0.00    -0.017 C 
HETATM   50  C36 UNL     1      -7.079  47.324 -27.696  1.00  0.00     0.008 C 
BRANCH  50  51
HETATM   51  C37 UNL     1      -5.834  47.847 -27.118  1.00  0.00    -0.036 A 
HETATM   52  C38 UNL     1      -5.749  48.028 -25.730  1.00  0.00     0.011 A 
HETATM   53  C39 UNL     1      -4.565  48.488 -25.145  1.00  0.00     0.001 A 
HETATM   54  C40 UNL     1      -3.454  48.765 -25.942  1.00  0.00     0.000 A 
HETATM   55  C41 UNL     1      -3.522  48.577 -27.321  1.00  0.00     0.001 A 
HETATM   56  C42 UNL     1      -4.705  48.116 -27.907  1.00  0.00     0.011 A 
ENDBRANCH  50  51
ENDBRANCH  26  49
TORSDOF 15
ENDMDL
