MODEL 1
REMARK minimizedAffinity -9.68144417
REMARK  6 active torsions:
REMARK  status: ('A' for Active; 'I' for Inactive)
REMARK    1  A    between atoms: C9_10  and  C10_11 
REMARK    2  A    between atoms: C11_13  and  O3_14 
REMARK    3  A    between atoms: C12_15  and  C13_16 
REMARK    4  A    between atoms: C14_18  and  O5_19 
REMARK    5  A    between atoms: C16_21  and  C17_22 
REMARK    6  A    between atoms: C17_22  and  C18_23 
ROOT
HETATM    1  C1  UNL     1       0.214  54.081 -19.540  1.00  0.00     0.043 C 
HETATM    2  C2  UNL     1       0.070  52.823 -20.375  1.00  0.00    -0.087 C 
HETATM    3  C3  UNL     1      -0.633  51.796 -19.857  1.00  0.00    -0.024 C 
HETATM    4  C4  UNL     1      -0.921  50.439 -20.422  1.00  0.00     0.030 C 
HETATM    5  C5  UNL     1      -2.368  50.331 -20.915  1.00  0.00     0.042 C 
HETATM    6  C6  UNL     1      -2.650  49.217 -21.966  1.00  0.00     0.069 C 
HETATM    7  C7  UNL     1      -1.799  47.963 -21.671  1.00  0.00     0.047 C 
HETATM    8  O1  UNL     1      -4.006  48.819 -21.665  1.00  0.00    -0.338 OA
HETATM    9  C8  UNL     1      -4.906  48.509 -22.641  1.00  0.00     0.095 A 
HETATM   10  C9  UNL     1      -6.223  48.270 -22.194  1.00  0.00     0.070 A 
HETATM   11  C11 UNL     1      -7.248  48.055 -23.114  1.00  0.00     0.097 A 
HETATM   12  C12 UNL     1      -6.974  48.121 -24.479  1.00  0.00     0.069 A 
HETATM   13  C14 UNL     1      -5.651  48.331 -24.924  1.00  0.00     0.091 A 
HETATM   14  C15 UNL     1      -4.582  48.491 -24.016  1.00  0.00     0.015 A 
HETATM   15  C16 UNL     1      -3.096  48.639 -24.381  1.00  0.00     0.032 C 
HETATM   16  C21 UNL     1      -2.541  49.762 -23.441  1.00  0.00     0.034 C 
HETATM   17  C22 UNL     1      -1.147  50.270 -23.797  1.00  0.00     0.006 A 
HETATM   18  C23 UNL     1      -0.676  51.658 -23.364  1.00  0.00    -0.001 A 
HETATM   19  C24 UNL     1       0.709  51.876 -22.807  1.00  0.00     0.010 C 
HETATM   20  C25 UNL     1       0.773  52.957 -21.718  1.00  0.00     0.034 C 
HETATM   21  C26 UNL     1      -0.894  51.373 -24.839  1.00  0.00    -0.039 A 
HETATM   22  C27 UNL     1      -2.014  52.154 -25.488  1.00  0.00     0.015 C 
HETATM   23  C28 UNL     1       0.291  51.180 -25.761  1.00  0.00     0.015 C 
ENDROOT
BRANCH  15  24
HETATM   24  C17 UNL     1      -2.702  48.786 -25.872  1.00  0.00     0.014 C 
BRANCH  24  25
HETATM   25  C18 UNL     1      -3.810  49.392 -26.775  1.00  0.00    -0.022 C 
HETATM   26  C19 UNL     1      -4.133  48.484 -27.968  1.00  0.00     0.009 C 
HETATM   27  C20 UNL     1      -3.364  50.763 -27.292  1.00  0.00     0.009 C 
ENDBRANCH  24  25
ENDBRANCH  15  24
BRANCH  13  28
HETATM   28  O5  UNL     1      -5.402  48.418 -26.267  1.00  0.00    -0.359 OA
HETATM   29  H15 UNL     1      -6.229  48.269 -26.778  1.00  0.00     0.217 HD
ENDBRANCH  13  28
BRANCH  10  30
HETATM   30  C10 UNL     1      -6.569  48.239 -20.749  1.00  0.00     0.275 C 
HETATM   31  O2  UNL     1      -7.277  49.071 -20.196  1.00  0.00    -0.301 OA
ENDBRANCH  10  30
BRANCH  12  32
HETATM   32  C13 UNL     1      -8.089  48.002 -25.444  1.00  0.00     0.275 C 
HETATM   33  O4  UNL     1      -9.087  48.710 -25.348  1.00  0.00    -0.301 OA
ENDBRANCH  12  32
BRANCH  11  34
HETATM   34  O3  UNL     1      -8.514  47.791 -22.660  1.00  0.00    -0.359 OA
HETATM   35  H13 UNL     1      -8.751  46.882 -22.929  1.00  0.00     0.217 HD
ENDBRANCH  11  34
TORSDOF 6
ENDMDL
