MODEL 1
REMARK minimizedAffinity -7.61803579
REMARK CNNscore 0.774657071
REMARK CNNaffinity 6.74949646
REMARK  9 active torsions:
REMARK  status: ('A' for Active; 'I' for Inactive)
REMARK    1  A    between atoms: O1_2  and  C2_3 
REMARK    2  A    between atoms: C2_3  and  C4_5 
REMARK    3  A    between atoms: C2_3  and  C5_7 
REMARK    4  A    between atoms: C4_5  and  O2_6 
REMARK    5  A    between atoms: C5_7  and  O3_8 
REMARK    6  A    between atoms: C5_7  and  C6_9 
REMARK    7  A    between atoms: C6_9  and  C7_10 
REMARK    8  A    between atoms: C7_10  and  C8_11 
REMARK    9  A    between atoms: C8_11  and  C10_13 
ROOT
HETATM    1  C10 UNL     1       5.514  56.091  -7.951  1.00  0.00    -0.001 C 
HETATM    2  C11 UNL     1       6.278  55.087  -8.861  1.00  0.00     0.007 C 
HETATM    3  C12 UNL     1       5.231  54.316  -9.682  1.00  0.00     0.015 C 
HETATM    4  C13 UNL     1       3.922  55.107  -9.505  1.00  0.00    -0.004 C 
HETATM    5  C14 UNL     1       3.948  56.273 -10.538  1.00  0.00     0.021 C 
HETATM    6  C15 UNL     1       2.578  54.424  -9.705  1.00  0.00     0.007 C 
HETATM    7  C16 UNL     1       1.443  54.852  -9.098  1.00  0.00     0.007 C 
HETATM    8  C17 UNL     1       1.571  56.017  -8.126  1.00  0.00     0.157 C 
HETATM    9  O4  UNL     1       0.566  56.564  -7.669  1.00  0.00    -0.293 OA
HETATM   10  C18 UNL     1       2.941  56.537  -7.704  1.00  0.00     0.094 C 
HETATM   11  C19 UNL     1       4.056  55.536  -7.999  1.00  0.00    -0.022 C 
HETATM   12  C20 UNL     1       3.923  54.340  -7.002  1.00  0.00     0.017 C 
HETATM   13  C21 UNL     1       0.036  54.231  -9.308  1.00  0.00    -0.007 C 
HETATM   14  C22 UNL     1      -0.297  53.462  -8.007  1.00  0.00     0.021 C 
HETATM   15  C23 UNL     1      -1.060  55.320  -9.549  1.00  0.00     0.022 C 
HETATM   16  C24 UNL     1      -2.246  54.901 -10.418  1.00  0.00     0.080 C 
HETATM   17  C25 UNL     1      -2.472  53.411 -10.389  1.00  0.00     0.135 C 
HETATM   18  O5  UNL     1      -3.565  52.941 -10.077  1.00  0.00    -0.297 OA
HETATM   19  C26 UNL     1      -1.300  52.537 -10.849  1.00  0.00     0.018 C 
HETATM   20  C27 UNL     1      -1.386  51.154 -10.178  1.00  0.00     0.023 C 
HETATM   21  C28 UNL     1      -1.478  52.323 -12.368  1.00  0.00     0.023 C 
HETATM   22  C29 UNL     1       0.041  53.302 -10.575  1.00  0.00     0.021 C 
HETATM   23  C30 UNL     1       1.270  52.395 -10.590  1.00  0.00     0.090 C 
HETATM   24  C31 UNL     1       2.507  53.251 -10.629  1.00  0.00     0.157 C 
HETATM   25  O6  UNL     1       3.436  52.973 -11.382  1.00  0.00    -0.293 OA
ENDROOT
BRANCH   1  26
HETATM   26  C8  UNL     1       6.229  56.296  -6.580  1.00  0.00    -0.014 C 
HETATM   27  C9  UNL     1       6.206  57.763  -6.133  1.00  0.00     0.010 C 
BRANCH  26  28
HETATM   28  C7  UNL     1       7.700  55.801  -6.656  1.00  0.00     0.007 C 
BRANCH  28  29
HETATM   29  C6  UNL     1       8.329  55.542  -5.274  1.00  0.00     0.035 C 
BRANCH  29  30
HETATM   30  C5  UNL     1       9.821  55.929  -5.238  1.00  0.00     0.154 C 
BRANCH  30  31
HETATM   31  C2  UNL     1      10.132  57.279  -4.500  1.00  0.00     0.103 C 
HETATM   32  C3  UNL     1       9.255  57.466  -3.253  1.00  0.00     0.051 C 
BRANCH  31  33
HETATM   33  O1  UNL     1       9.971  58.428  -5.377  1.00  0.00    -0.381 OA
HETATM   34  C1  UNL     1      10.467  59.669  -4.898  1.00  0.00     0.202 C 
ENDBRANCH  31  33
BRANCH  31  35
HETATM   35  C4  UNL     1      11.616  57.365  -4.068  1.00  0.00     0.204 C 
BRANCH  35  36
HETATM   36  O2  UNL     1      12.452  56.766  -5.064  1.00  0.00    -0.398 OA
HETATM   37  H9  UNL     1      12.247  57.266  -5.882  1.00  0.00     0.209 HD
ENDBRANCH  35  36
ENDBRANCH  31  35
ENDBRANCH  30  31
BRANCH  30  38
HETATM   38  O3  UNL     1      10.557  54.845  -4.655  1.00  0.00    -0.392 OA
HETATM   39  H11 UNL     1      10.416  54.898  -3.686  1.00  0.00     0.210 HD
ENDBRANCH  30  38
ENDBRANCH  29  30
ENDBRANCH  28  29
ENDBRANCH  26  28
ENDBRANCH   1  26
TORSDOF 9
ENDMDL
