MODEL 1
REMARK minimizedAffinity -7.66372252
REMARK CNNscore 0.831801772
REMARK CNNaffinity 7.06428766
REMARK  11 active torsions:
REMARK  status: ('A' for Active; 'I' for Inactive)
REMARK    1  A    between atoms: C2_2  and  C3_3 
REMARK    2  A    between atoms: C2_2  and  C30_36 
REMARK    3  A    between atoms: C3_3  and  C4_5 
REMARK    4  A    between atoms: C4_5  and  O2_6 
REMARK    5  A    between atoms: C4_5  and  C5_7 
REMARK    6  A    between atoms: C5_7  and  C7_9 
REMARK    7  A    between atoms: C8_10  and  O3_11 
REMARK    8  A    between atoms: O3_11  and  C9_12 
REMARK    9  A    between atoms: C22_27  and  O6_28 
REMARK   10  A    between atoms: C30_36  and  C32_38 
REMARK   11  A    between atoms: C32_38  and  O7_39 
ROOT
HETATM    1  C7  UNL     1       1.219  10.103  17.253  1.00  0.00     0.031 C 
HETATM    2  C8  UNL     1      -0.273  10.518  17.014  1.00  0.00     0.138 C 
HETATM    3  C11 UNL     1      -0.623  10.111  15.565  1.00  0.00     0.043 C 
HETATM    4  C12 UNL     1       0.547   9.235  15.083  1.00  0.00    -0.030 C 
HETATM    5  C13 UNL     1       0.242   7.782  15.563  1.00  0.00     0.016 C 
HETATM    6  C14 UNL     1       0.765   9.265  13.544  1.00  0.00     0.004 C 
HETATM    7  C15 UNL     1      -0.332   8.550  12.745  1.00  0.00     0.007 C 
HETATM    8  C16 UNL     1      -0.081   8.691  11.247  1.00  0.00     0.007 C 
HETATM    9  C17 UNL     1       1.159   7.893  10.839  1.00  0.00     0.008 C 
HETATM   10  C18 UNL     1       1.552   8.088   9.358  1.00  0.00     0.056 C 
HETATM   11  C19 UNL     1       0.399   7.829   8.387  1.00  0.00     0.018 C 
HETATM   12  C20 UNL     1       2.729   7.161   9.052  1.00  0.00     0.133 C 
HETATM   13  O5  UNL     1       2.771   6.456   8.041  1.00  0.00    -0.297 OA
HETATM   14  C21 UNL     1       3.926   7.241   9.975  1.00  0.00     0.111 C 
HETATM   15  C22 UNL     1       3.508   7.184  11.439  1.00  0.00     0.134 C 
HETATM   16  C23 UNL     1       2.383   8.169  11.726  1.00  0.00    -0.001 A 
HETATM   17  C24 UNL     1       2.812   9.590  12.001  1.00  0.00     0.024 A 
HETATM   18  C25 UNL     1       2.180   8.795  13.135  1.00  0.00    -0.025 A 
HETATM   19  C26 UNL     1       3.104   8.313  14.255  1.00  0.00     0.011 C 
HETATM   20  C27 UNL     1       2.986   9.003  15.628  1.00  0.00     0.011 C 
HETATM   21  C28 UNL     1       1.767   9.920  15.795  1.00  0.00    -0.030 C 
HETATM   22  C29 UNL     1       2.143  11.315  15.215  1.00  0.00     0.016 C 
ENDROOT
BRANCH   1  23
HETATM   23  C5  UNL     1       1.993  10.999  18.276  1.00  0.00     0.025 C 
HETATM   24  C6  UNL     1       3.477  11.117  17.890  1.00  0.00     0.013 C 
BRANCH  23  25
HETATM   25  C4  UNL     1       1.865  10.435  19.716  1.00  0.00     0.196 C 
BRANCH  25  26
HETATM   26  C3  UNL     1       1.855  11.495  20.839  1.00  0.00     0.184 C 
HETATM   27  O1  UNL     1       1.144  12.500  20.729  1.00  0.00    -0.290 OA
BRANCH  26  28
HETATM   28  C2  UNL     1       2.723  11.324  22.050  1.00  0.00    -0.013 C 
HETATM   29  C1  UNL     1       2.978  12.449  22.740  1.00  0.00     0.023 C 
BRANCH  28  30
HETATM   30  C30 UNL     1       3.288   9.961  22.364  1.00  0.00     0.041 C 
HETATM   31  C31 UNL     1       4.620  10.095  23.115  1.00  0.00     0.017 C 
BRANCH  30  32
HETATM   32  C32 UNL     1       2.306   9.060  23.135  1.00  0.00     0.173 C 
BRANCH  32  33
HETATM   33  O7  UNL     1       1.855   8.008  22.285  1.00  0.00    -0.400 OA
HETATM   34  H48 UNL     1       1.237   7.463  22.806  1.00  0.00     0.209 HD
ENDBRANCH  32  33
ENDBRANCH  30  32
ENDBRANCH  28  30
ENDBRANCH  26  28
ENDBRANCH  25  26
BRANCH  25  35
HETATM   35  O2  UNL     1       2.945   9.522  19.951  1.00  0.00    -0.387 OA
HETATM   36  H4  UNL     1       3.138   9.572  20.908  1.00  0.00     0.210 HD
ENDBRANCH  25  35
ENDBRANCH  23  25
ENDBRANCH   1  23
BRANCH   2  37
HETATM   37  O3  UNL     1      -0.446  11.940  17.163  1.00  0.00    -0.316 OA
BRANCH  37  38
HETATM   38  C9  UNL     1      -1.502  12.325  17.935  1.00  0.00     0.255 C 
HETATM   39  C10 UNL     1      -1.932  11.206  18.834  1.00  0.00     0.126 C 
HETATM   40  O4  UNL     1      -2.054  13.414  17.890  1.00  0.00    -0.266 OA
ENDBRANCH  37  38
ENDBRANCH   2  37
BRANCH  15  41
HETATM   41  O6  UNL     1       3.074   5.875  11.793  1.00  0.00    -0.394 OA
HETATM   42  H32 UNL     1       3.819   5.266  11.648  1.00  0.00     0.210 HD
ENDBRANCH  15  41
TORSDOF 11
ENDMDL
