MODEL 1
REMARK minimizedAffinity -10.7251673
REMARK CNNscore 0.25652957
REMARK CNNaffinity 7.57347441
REMARK  10 active torsions:
REMARK  status: ('A' for Active; 'I' for Inactive)
REMARK    1  A    between atoms: O1_2  and  C2_3 
REMARK    2  A    between atoms: C7_9  and  C8_10 
REMARK    3  A    between atoms: C8_10  and  C9_11 
REMARK    4  A    between atoms: C9_11  and  N2_12 
REMARK    5  A    between atoms: N2_12  and  C10_13 
REMARK    6  A    between atoms: C20_24  and  C21_25 
REMARK    7  A    between atoms: C21_25  and  C23_27 
REMARK    8  A    between atoms: C27_31  and  C28_32 
REMARK    9  A    between atoms: C28_32  and  O3_33 
REMARK   10  A    between atoms: C37_45  and  O7_46 
ROOT
HETATM    1  C10 UNL     1      -2.242   7.570  15.358  1.00  0.00     0.259 C 
HETATM    2  C11 UNL     1      -0.882   8.280  15.353  1.00  0.00     0.117 C 
HETATM    3  C12 UNL     1      -0.457   8.676  13.954  1.00  0.00     0.141 C 
HETATM    4  O2  UNL     1       0.143   9.739  13.761  1.00  0.00    -0.297 OA
HETATM    5  C13 UNL     1      -0.778   7.708  12.804  1.00  0.00     0.057 C 
HETATM    6  C14 UNL     1      -1.965   8.323  12.015  1.00  0.00     0.027 C 
HETATM    7  C15 UNL     1       0.442   7.613  11.818  1.00  0.00     0.009 C 
HETATM    8  C16 UNL     1       1.804   7.316  12.483  1.00  0.00     0.007 C 
HETATM    9  C17 UNL     1       2.620   6.213  11.814  1.00  0.00     0.010 C 
HETATM   10  C18 UNL     1       2.726   6.294  10.280  1.00  0.00    -0.036 C 
HETATM   11  C19 UNL     1       3.204   4.900   9.798  1.00  0.00     0.016 C 
HETATM   12  C20 UNL     1       3.650   7.424   9.682  1.00  0.00     0.000 C 
HETATM   13  C30 UNL     1       2.704   8.588   9.403  1.00  0.00     0.006 C 
HETATM   14  C31 UNL     1       1.490   7.890   8.820  1.00  0.00     0.006 C 
HETATM   15  C32 UNL     1       1.318   6.586   9.628  1.00  0.00    -0.001 C 
HETATM   16  C33 UNL     1       0.130   6.683  10.623  1.00  0.00    -0.002 C 
HETATM   17  C34 UNL     1      -0.398   5.282  11.014  1.00  0.00     0.040 C 
HETATM   18  C35 UNL     1      -1.071   5.182  12.352  1.00  0.00     0.161 A 
HETATM   19  O6  UNL     1      -0.136   5.356  13.415  1.00  0.00    -0.365 OA
HETATM   20  C36 UNL     1      -1.179   6.342  13.335  1.00  0.00     0.130 A 
HETATM   21  C37 UNL     1      -2.139   6.264  14.516  1.00  0.00     0.190 C 
ENDROOT
BRANCH   1  22
HETATM   22  N2  UNL     1      -3.296   8.532  14.969  1.00  0.00     0.091 N 
HETATM   23  H12 UNL     1      -3.190   9.391  15.521  1.00  0.00     0.316 HD
BRANCH  22  24
HETATM   24  C9  UNL     1      -4.670   8.031  15.122  1.00  0.00     0.275 C 
BRANCH  24  25
HETATM   25  C8  UNL     1      -5.253   7.629  13.753  1.00  0.00     0.070 C 
BRANCH  25  26
HETATM   26  C7  UNL     1      -6.300   6.564  13.879  1.00  0.00    -0.029 A 
HETATM   27  C6  UNL     1      -7.516   6.691  14.518  1.00  0.00     0.096 A 
HETATM   28  N1  UNL     1      -8.218   5.521  14.365  1.00  0.00    -0.365 N 
HETATM   29  C5  UNL     1      -7.484   4.627  13.628  1.00  0.00     0.043 A 
HETATM   30  H6  UNL     1      -9.146   5.345  14.729  1.00  0.00     0.165 HD
HETATM   31  C4  UNL     1      -7.798   3.329  13.204  1.00  0.00     0.033 A 
HETATM   32  C38 UNL     1      -6.263   5.245  13.330  1.00  0.00     0.001 A 
HETATM   33  C3  UNL     1      -6.833   2.644  12.454  1.00  0.00     0.039 A 
HETATM   34  C2  UNL     1      -5.591   3.212  12.169  1.00  0.00     0.069 A 
HETATM   35  C39 UNL     1      -5.306   4.518  12.590  1.00  0.00     0.051 A 
BRANCH  34  36
HETATM   36  O1  UNL     1      -4.748   2.422  11.430  1.00  0.00    -0.356 OA
HETATM   37  C1  UNL     1      -3.399   2.363  11.864  1.00  0.00     0.210 C 
ENDBRANCH  34  36
ENDBRANCH  25  26
ENDBRANCH  24  25
ENDBRANCH  22  24
ENDBRANCH   1  22
BRANCH  21  38
HETATM   38  O7  UNL     1      -1.698   5.246  15.428  1.00  0.00    -0.390 OA
HETATM   39  H51 UNL     1      -2.156   4.415  15.201  1.00  0.00     0.210 HD
ENDBRANCH  21  38
BRANCH  12  40
HETATM   40  C21 UNL     1       5.072   7.818  10.207  1.00  0.00     0.016 C 
HETATM   41  C22 UNL     1       5.561   6.782  11.238  1.00  0.00     0.013 C 
BRANCH  40  42
HETATM   42  C23 UNL     1       5.463   9.243  10.704  1.00  0.00     0.140 C 
HETATM   43  C24 UNL     1       4.859   9.708  12.026  1.00  0.00     0.067 C 
HETATM   44  C25 UNL     1       5.295  11.132  12.271  1.00  0.00    -0.067 C 
HETATM   45  C26 UNL     1       4.315  11.994  13.020  1.00  0.00     0.044 C 
HETATM   46  C27 UNL     1       6.514  11.547  11.846  1.00  0.00     0.042 C 
HETATM   47  C29 UNL     1       7.422  10.585  11.156  1.00  0.00     0.292 C 
HETATM   48  O4  UNL     1       8.605  10.835  10.964  1.00  0.00    -0.260 OA
HETATM   49  O5  UNL     1       6.884   9.412  10.731  1.00  0.00    -0.311 OA
BRANCH  46  50
HETATM   50  C28 UNL     1       7.097  12.910  12.082  1.00  0.00     0.209 C 
BRANCH  50  51
HETATM   51  O3  UNL     1       8.133  12.843  13.065  1.00  0.00    -0.396 OA
HETATM   52  H40 UNL     1       8.729  13.590  12.879  1.00  0.00     0.209 HD
ENDBRANCH  50  51
ENDBRANCH  46  50
ENDBRANCH  40  42
ENDBRANCH  12  40
TORSDOF 10
ENDMDL
