MODEL 1
REMARK minimizedAffinity -7.4651103
REMARK CNNscore 0.632524252
REMARK CNNaffinity 7.31523275
REMARK  8 active torsions:
REMARK  status: ('A' for Active; 'I' for Inactive)
REMARK    1  A    between atoms: C2_2  and  C3_3 
REMARK    2  A    between atoms: C2_2  and  C29_30 
REMARK    3  A    between atoms: C3_3  and  C4_4 
REMARK    4  A    between atoms: C4_4  and  C5_5 
REMARK    5  A    between atoms: C5_5  and  C7_7 
REMARK    6  A    between atoms: C29_30  and  C31_32 
REMARK    7  A    between atoms: C31_32  and  O2_33 
REMARK    8  A    between atoms: O2_33  and  C32_34 
ROOT
HETATM    1  C7  UNL     1       2.176  52.714 -10.296  1.00  0.00    -0.002 C 
HETATM    2  C8  UNL     1       3.566  52.140  -9.996  1.00  0.00     0.006 C 
HETATM    3  C9  UNL     1       4.550  53.263 -10.256  1.00  0.00     0.011 C 
HETATM    4  C10 UNL     1       3.837  54.593  -9.880  1.00  0.00    -0.032 C 
HETATM    5  C11 UNL     1       4.162  55.611 -10.998  1.00  0.00     0.016 C 
HETATM    6  C12 UNL     1       4.387  55.100  -8.487  1.00  0.00     0.004 C 
HETATM    7  C13 UNL     1       5.834  55.622  -8.508  1.00  0.00     0.007 C 
HETATM    8  C14 UNL     1       6.262  56.008  -7.097  1.00  0.00     0.007 C 
HETATM    9  C15 UNL     1       5.498  57.237  -6.557  1.00  0.00     0.010 C 
HETATM   10  C16 UNL     1       5.868  57.548  -5.063  1.00  0.00     0.018 C 
HETATM   11  C17 UNL     1       7.337  58.028  -4.978  1.00  0.00     0.023 C 
HETATM   12  C18 UNL     1       5.713  56.336  -4.125  1.00  0.00     0.023 C 
HETATM   13  C19 UNL     1       4.995  58.684  -4.507  1.00  0.00     0.135 C 
HETATM   14  O1  UNL     1       5.371  59.397  -3.572  1.00  0.00    -0.297 OA
HETATM   15  C20 UNL     1       3.644  58.926  -5.125  1.00  0.00     0.080 C 
HETATM   16  C21 UNL     1       3.091  57.639  -5.698  1.00  0.00     0.018 C 
HETATM   17  C22 UNL     1       3.976  57.137  -6.824  1.00  0.00    -0.026 A 
HETATM   18  C23 UNL     1       3.517  57.560  -8.207  1.00  0.00     0.021 A 
HETATM   19  C24 UNL     1       3.429  56.098  -7.833  1.00  0.00    -0.027 A 
HETATM   20  C25 UNL     1       2.046  55.521  -7.579  1.00  0.00     0.011 C 
HETATM   21  C26 UNL     1       1.817  54.202  -8.309  1.00  0.00     0.011 C 
HETATM   22  C27 UNL     1       2.284  54.209  -9.804  1.00  0.00    -0.032 C 
HETATM   23  C28 UNL     1       1.361  55.198 -10.541  1.00  0.00     0.016 C 
ENDROOT
BRANCH   1  24
HETATM   24  C5  UNL     1       1.658  52.327 -11.719  1.00  0.00    -0.014 C 
HETATM   25  C6  UNL     1       0.489  51.345 -11.788  1.00  0.00     0.010 C 
BRANCH  24  26
HETATM   26  C4  UNL     1       2.833  52.043 -12.700  1.00  0.00     0.009 C 
BRANCH  26  27
HETATM   27  C3  UNL     1       2.579  51.014 -13.809  1.00  0.00     0.034 C 
BRANCH  27  28
HETATM   28  C2  UNL     1       2.676  51.620 -15.200  1.00  0.00    -0.083 C 
HETATM   29  C1  UNL     1       3.761  52.344 -15.535  1.00  0.00     0.015 C 
BRANCH  28  30
HETATM   30  C29 UNL     1       1.507  51.353 -16.155  1.00  0.00     0.034 C 
HETATM   31  C30 UNL     1       0.219  50.922 -15.439  1.00  0.00     0.017 C 
BRANCH  30  32
HETATM   32  C31 UNL     1       1.209  52.573 -17.053  1.00  0.00     0.187 C 
BRANCH  32  33
HETATM   33  O2  UNL     1       1.064  52.205 -18.437  1.00  0.00    -0.321 OA
BRANCH  33  34
HETATM   34  C32 UNL     1       0.008  52.765 -19.087  1.00  0.00     0.254 C 
HETATM   35  C33 UNL     1       0.488  53.847 -20.005  1.00  0.00     0.126 C 
HETATM   36  O3  UNL     1      -1.164  52.444 -18.951  1.00  0.00    -0.266 OA
ENDBRANCH  33  34
ENDBRANCH  32  33
ENDBRANCH  30  32
ENDBRANCH  28  30
ENDBRANCH  27  28
ENDBRANCH  26  27
ENDBRANCH  24  26
ENDBRANCH   1  24
TORSDOF 8
ENDMDL
