MODEL 1
REMARK minimizedAffinity -9.21059513
REMARK  8 active torsions:
REMARK  status: ('A' for Active; 'I' for Inactive)
REMARK    1  A    between atoms: C2_2  and  C3_3 
REMARK    2  A    between atoms: C2_2  and  C29_30 
REMARK    3  A    between atoms: C3_3  and  C4_4 
REMARK    4  A    between atoms: C4_4  and  C5_5 
REMARK    5  A    between atoms: C5_5  and  C7_7 
REMARK    6  A    between atoms: C29_30  and  C31_32 
REMARK    7  A    between atoms: C31_32  and  O2_33 
REMARK    8  A    between atoms: O2_33  and  C32_34 
ROOT
HETATM    1  C7  UNL     1      -3.548   8.354  14.355  1.00  0.00    -0.002 C 
HETATM    2  C8  UNL     1      -3.323   7.474  15.627  1.00  0.00     0.006 C 
HETATM    3  C9  UNL     1      -1.884   6.914  15.562  1.00  0.00     0.011 C 
HETATM    4  C10 UNL     1      -1.220   7.724  14.444  1.00  0.00    -0.032 C 
HETATM    5  C11 UNL     1      -0.799   9.094  15.108  1.00  0.00     0.016 C 
HETATM    6  C12 UNL     1       0.090   7.177  13.822  1.00  0.00     0.004 C 
HETATM    7  C13 UNL     1       0.142   5.676  13.376  1.00  0.00     0.007 C 
HETATM    8  C14 UNL     1       0.714   5.432  11.940  1.00  0.00     0.007 C 
HETATM    9  C15 UNL     1       2.008   6.228  11.722  1.00  0.00     0.010 C 
HETATM   10  C16 UNL     1       2.756   6.304  10.391  1.00  0.00     0.018 C 
HETATM   11  C17 UNL     1       1.924   6.973   9.292  1.00  0.00     0.023 C 
HETATM   12  C18 UNL     1       3.191   4.908   9.921  1.00  0.00     0.023 C 
HETATM   13  C19 UNL     1       4.036   7.144  10.664  1.00  0.00     0.135 C 
HETATM   14  O1  UNL     1       4.738   7.547   9.732  1.00  0.00    -0.297 OA
HETATM   15  C20 UNL     1       4.487   7.371  12.124  1.00  0.00     0.080 C 
HETATM   16  C21 UNL     1       3.348   7.667  13.134  1.00  0.00     0.018 C 
HETATM   17  C22 UNL     1       2.027   7.589  12.389  1.00  0.00    -0.026 A 
HETATM   18  C23 UNL     1       1.557   9.006  12.300  1.00  0.00     0.021 A 
HETATM   19  C24 UNL     1       0.500   8.029  12.629  1.00  0.00    -0.027 A 
HETATM   20  C25 UNL     1      -0.645   8.274  11.614  1.00  0.00     0.011 C 
HETATM   21  C26 UNL     1      -1.940   8.798  12.282  1.00  0.00     0.011 C 
HETATM   22  C27 UNL     1      -2.407   7.858  13.407  1.00  0.00    -0.032 C 
HETATM   23  C28 UNL     1      -2.889   6.536  12.742  1.00  0.00     0.016 C 
ENDROOT
BRANCH   1  24
HETATM   24  C5  UNL     1      -5.032   8.338  13.889  1.00  0.00    -0.014 C 
HETATM   25  C6  UNL     1      -6.005   8.671  15.025  1.00  0.00     0.010 C 
BRANCH  24  26
HETATM   26  C4  UNL     1      -5.442   6.995  13.222  1.00  0.00     0.009 C 
BRANCH  26  27
HETATM   27  C3  UNL     1      -6.399   6.125  14.049  1.00  0.00     0.034 C 
BRANCH  27  28
HETATM   28  C2  UNL     1      -7.148   5.105  13.203  1.00  0.00    -0.083 C 
HETATM   29  C1  UNL     1      -8.306   5.463  12.616  1.00  0.00     0.015 C 
BRANCH  28  30
HETATM   30  C29 UNL     1      -6.523   3.707  13.091  1.00  0.00     0.034 C 
HETATM   31  C30 UNL     1      -7.622   2.643  12.988  1.00  0.00     0.017 C 
BRANCH  30  32
HETATM   32  C31 UNL     1      -5.525   3.501  11.929  1.00  0.00     0.187 C 
BRANCH  32  33
HETATM   33  O2  UNL     1      -4.205   3.284  12.454  1.00  0.00    -0.321 OA
BRANCH  33  34
HETATM   34  C32 UNL     1      -3.396   2.546  11.646  1.00  0.00     0.254 C 
HETATM   35  C33 UNL     1      -2.710   3.435  10.655  1.00  0.00     0.126 C 
HETATM   36  O3  UNL     1      -3.244   1.333  11.709  1.00  0.00    -0.266 OA
ENDBRANCH  33  34
ENDBRANCH  32  33
ENDBRANCH  30  32
ENDBRANCH  28  30
ENDBRANCH  27  28
ENDBRANCH  26  27
ENDBRANCH  24  26
ENDBRANCH   1  24
TORSDOF 8
ENDMDL
