MODEL 1
REMARK minimizedAffinity -8.31517982
REMARK CNNscore 0.55775249
REMARK CNNaffinity 6.48797798
REMARK  5 active torsions:
REMARK  status: ('A' for Active; 'I' for Inactive)
REMARK    1  A    between atoms: C2_2  and  C4_4 
REMARK    2  A    between atoms: C7_7  and  C8_8 
REMARK    3  A    between atoms: C8_8  and  O2_10 
REMARK    4  A    between atoms: C11_13  and  C12_14 
REMARK    5  A    between atoms: C12_14  and  O4_16 
ROOT
HETATM    1  C4  UNL     1       1.148   8.384  10.538  1.00  0.00     0.019 C 
HETATM    2  C5  UNL     1       2.650   7.999  10.411  1.00  0.00     0.011 C 
HETATM    3  C6  UNL     1       2.948   6.974  11.527  1.00  0.00     0.021 C 
HETATM    4  C7  UNL     1       1.838   7.224  12.558  1.00  0.00     0.050 C 
HETATM    5  C9  UNL     1       1.581   6.103  13.586  1.00  0.00     0.022 C 
HETATM    6  C10 UNL     1       0.226   5.384  13.460  1.00  0.00     0.023 C 
HETATM    7  C11 UNL     1      -1.057   6.247  13.126  1.00  0.00     0.057 C 
HETATM    8  C13 UNL     1      -0.642   7.575  12.398  1.00  0.00     0.011 C 
HETATM    9  C14 UNL     1      -1.822   8.280  11.741  1.00  0.00     0.007 C 
HETATM   10  C15 UNL     1      -3.115   8.115  12.557  1.00  0.00     0.006 C 
HETATM   11  C16 UNL     1      -2.872   7.972  14.087  1.00  0.00     0.003 C 
HETATM   12  C17 UNL     1      -4.177   8.214  15.014  1.00  0.00    -0.035 C 
HETATM   13  C18 UNL     1      -3.728   9.212  16.140  1.00  0.00     0.016 C 
HETATM   14  C19 UNL     1      -5.311   8.961  14.245  1.00  0.00     0.017 C 
HETATM   15  C20 UNL     1      -6.645   8.951  14.971  1.00  0.00     0.080 C 
HETATM   16  C21 UNL     1      -7.166   7.538  15.052  1.00  0.00     0.135 C 
HETATM   17  O5  UNL     1      -8.383   7.335  15.026  1.00  0.00    -0.297 OA
HETATM   18  C22 UNL     1      -6.143   6.391  15.183  1.00  0.00     0.017 C 
HETATM   19  C23 UNL     1      -6.770   5.370  16.168  1.00  0.00     0.023 C 
HETATM   20  C24 UNL     1      -6.033   5.704  13.816  1.00  0.00     0.023 C 
HETATM   21  C25 UNL     1      -4.785   6.958  15.760  1.00  0.00     0.009 C 
HETATM   22  C26 UNL     1      -3.725   5.905  16.107  1.00  0.00     0.007 C 
HETATM   23  C27 UNL     1      -2.825   5.547  14.941  1.00  0.00     0.011 C 
HETATM   24  C28 UNL     1      -1.950   6.704  14.417  1.00  0.00    -0.022 C 
HETATM   25  C29 UNL     1      -0.971   7.098  15.568  1.00  0.00     0.017 C 
HETATM   26  C30 UNL     1       0.638   7.373  11.584  1.00  0.00     0.018 C 
ENDROOT
BRANCH   4  27
HETATM   27  C8  UNL     1       2.314   8.445  13.368  1.00  0.00     0.149 C 
HETATM   28  O1  UNL     1       3.136   8.408  14.273  1.00  0.00    -0.649 OA
BRANCH  27  29
HETATM   29  O2  UNL     1       1.765   9.625  13.045  1.00  0.00    -0.776 OA
HETATM   30  H11 UNL     1       2.197  10.257  13.659  1.00  0.00     0.167 HD
ENDBRANCH  27  29
ENDBRANCH   4  27
BRANCH   1  31
HETATM   31  C2  UNL     1       0.499   8.451   9.165  1.00  0.00    -0.088 C 
HETATM   32  C1  UNL     1      -0.731   8.928   8.915  1.00  0.00     0.014 C 
HETATM   33  C3  UNL     1       1.340   7.904   8.040  1.00  0.00     0.043 C 
ENDBRANCH   1  31
BRANCH   7  34
HETATM   34  C12 UNL     1      -1.827   5.257  12.201  1.00  0.00     0.149 C 
HETATM   35  O3  UNL     1      -3.038   5.096  12.161  1.00  0.00    -0.649 OA
BRANCH  34  36
HETATM   36  O4  UNL     1      -1.071   4.433  11.462  1.00  0.00    -0.776 OA
HETATM   37  H16 UNL     1      -1.728   3.875  10.995  1.00  0.00     0.167 HD
ENDBRANCH  34  36
ENDBRANCH   7  34
TORSDOF 5
ENDMDL
