MODEL 1
REMARK minimizedAffinity -10.5712461
REMARK  9 active torsions:
REMARK  status: ('A' for Active; 'I' for Inactive)
REMARK    1  A    between atoms: C2_2  and  C3_3 
REMARK    2  A    between atoms: C2_2  and  C27_31 
REMARK    3  A    between atoms: C3_3  and  C4_4 
REMARK    4  A    between atoms: C4_4  and  C5_5 
REMARK    5  A    between atoms: C5_5  and  C7_7 
REMARK    6  A    between atoms: C22_24  and  O3_26 
REMARK    7  A    between atoms: C26_29  and  O4_30 
REMARK    8  A    between atoms: C27_31  and  C29_33 
REMARK    9  A    between atoms: C29_33  and  O6_35 
ROOT
HETATM    1  C7  UNL     1      -0.843  51.007 -22.950  1.00  0.00    -0.002 C 
HETATM    2  C8  UNL     1      -0.186  52.416 -23.033  1.00  0.00     0.006 C 
HETATM    3  C9  UNL     1       0.202  52.819 -21.605  1.00  0.00     0.010 C 
HETATM    4  C10 UNL     1       0.076  51.522 -20.809  1.00  0.00     0.027 C 
HETATM    5  C11 UNL     1       0.103  51.493 -19.291  1.00  0.00    -0.036 C 
HETATM    6  C12 UNL     1      -0.429  50.448 -18.605  1.00  0.00     0.002 C 
HETATM    7  C13 UNL     1      -1.236  49.421 -19.380  1.00  0.00     0.157 C 
HETATM    8  O1  UNL     1      -1.913  48.575 -18.800  1.00  0.00    -0.293 OA
HETATM    9  C14 UNL     1      -1.214  49.437 -20.899  1.00  0.00     0.093 C 
HETATM   10  C15 UNL     1      -1.180  50.868 -21.432  1.00  0.00    -0.026 C 
HETATM   11  C16 UNL     1      -2.493  51.607 -21.069  1.00  0.00     0.016 C 
HETATM   12  C17 UNL     1      -0.272  50.274 -17.070  1.00  0.00    -0.006 C 
HETATM   13  C18 UNL     1      -1.591  50.781 -16.442  1.00  0.00     0.021 C 
HETATM   14  C19 UNL     1      -0.020  48.795 -16.646  1.00  0.00     0.022 C 
HETATM   15  C20 UNL     1       0.243  48.609 -15.158  1.00  0.00     0.083 C 
HETATM   16  C21 UNL     1       1.384  49.469 -14.687  1.00  0.00     0.161 C 
HETATM   17  O2  UNL     1       2.244  49.006 -13.936  1.00  0.00    -0.295 OA
HETATM   18  C22 UNL     1       1.348  50.956 -15.086  1.00  0.00     0.119 C 
HETATM   19  C23 UNL     1       2.707  51.596 -14.751  1.00  0.00     0.055 C 
HETATM   20  C24 UNL     1       1.013  51.071 -16.601  1.00  0.00     0.043 C 
HETATM   21  C25 UNL     1       0.922  52.522 -17.079  1.00  0.00     0.045 C 
HETATM   22  C26 UNL     1       0.868  52.601 -18.605  1.00  0.00     0.148 C 
ENDROOT
BRANCH   1  23
HETATM   23  C5  UNL     1      -1.973  50.827 -24.008  1.00  0.00    -0.014 C 
HETATM   24  C6  UNL     1      -3.013  51.951 -23.923  1.00  0.00     0.010 C 
BRANCH  23  25
HETATM   25  C4  UNL     1      -2.681  49.453 -23.828  1.00  0.00     0.009 C 
BRANCH  25  26
HETATM   26  C3  UNL     1      -2.677  48.558 -25.082  1.00  0.00     0.034 C 
BRANCH  26  27
HETATM   27  C2  UNL     1      -3.936  48.571 -25.928  1.00  0.00    -0.075 C 
HETATM   28  C1  UNL     1      -5.141  48.574 -25.326  1.00  0.00     0.015 C 
BRANCH  27  29
HETATM   29  C27 UNL     1      -3.735  48.603 -27.443  1.00  0.00     0.107 C 
HETATM   30  C28 UNL     1      -4.876  48.025 -28.289  1.00  0.00     0.026 C 
BRANCH  29  31
HETATM   31  C29 UNL     1      -3.488  50.034 -27.899  1.00  0.00     0.147 C 
HETATM   32  O5  UNL     1      -3.106  50.974 -27.220  1.00  0.00    -0.650 OA
BRANCH  31  33
HETATM   33  O6  UNL     1      -3.734  50.210 -29.216  1.00  0.00    -0.776 OA
HETATM   34  H42 UNL     1      -3.526  51.157 -29.364  1.00  0.00     0.167 HD
ENDBRANCH  31  33
ENDBRANCH  29  31
ENDBRANCH  27  29
ENDBRANCH  26  27
ENDBRANCH  25  26
ENDBRANCH  23  25
ENDBRANCH   1  23
BRANCH  22  35
HETATM   35  O4  UNL     1       0.292  53.859 -18.933  1.00  0.00    -0.391 OA
HETATM   36  H37 UNL     1      -0.634  53.843 -18.635  1.00  0.00     0.210 HD
ENDBRANCH  22  35
BRANCH  18  37
HETATM   37  O3  UNL     1       0.361  51.628 -14.311  1.00  0.00    -0.382 OA
HETATM   38  H32 UNL     1       0.646  51.592 -13.378  1.00  0.00     0.211 HD
ENDBRANCH  18  37
TORSDOF 9
ENDMDL
