MODEL 1
REMARK minimizedAffinity -9.21048546
REMARK CNNscore 0.598819911
REMARK CNNaffinity 6.75366402
REMARK  8 active torsions:
REMARK  status: ('A' for Active; 'I' for Inactive)
REMARK    1  A    between atoms: C4_4  and  C5_5 
REMARK    2  A    between atoms: C5_5  and  C6_6 
REMARK    3  A    between atoms: C6_6  and  C7_7 
REMARK    4  A    between atoms: C7_7  and  C9_9 
REMARK    5  A    between atoms: C25_26  and  C27_28 
REMARK    6  A    between atoms: C27_28  and  O3_30 
REMARK    7  A    between atoms: C28_31  and  O4_32 
REMARK    8  A    between atoms: C30_34  and  O5_35 
ROOT
HETATM    1  C9  UNL     1      -5.739   6.456  14.984  1.00  0.00    -0.002 C 
HETATM    2  C10 UNL     1      -5.963   5.162  14.150  1.00  0.00     0.007 C 
HETATM    3  C11 UNL     1      -4.713   4.964  13.272  1.00  0.00     0.015 C 
HETATM    4  C12 UNL     1      -3.639   5.887  13.881  1.00  0.00    -0.005 C 
HETATM    5  C13 UNL     1      -3.013   5.123  15.091  1.00  0.00     0.021 C 
HETATM    6  C14 UNL     1      -2.436   6.337  13.056  1.00  0.00    -0.000 C 
HETATM    7  C15 UNL     1      -1.824   7.528  13.296  1.00  0.00    -0.058 C 
HETATM    8  C16 UNL     1      -2.383   8.486  14.365  1.00  0.00     0.036 C 
HETATM    9  C17 UNL     1      -3.675   8.076  15.098  1.00  0.00     0.015 C 
HETATM   10  C18 UNL     1      -4.538   7.136  14.255  1.00  0.00    -0.028 C 
HETATM   11  C19 UNL     1      -5.024   7.920  13.002  1.00  0.00     0.016 C 
HETATM   12  C20 UNL     1      -0.579   8.036  12.497  1.00  0.00     0.011 C 
HETATM   13  C21 UNL     1      -1.150   9.002  11.431  1.00  0.00     0.023 C 
HETATM   14  C22 UNL     1       0.167   6.805  11.884  1.00  0.00     0.029 C 
HETATM   15  C23 UNL     1      -0.787   5.888  11.115  1.00  0.00     0.090 C 
HETATM   16  C24 UNL     1      -1.925   5.423  11.985  1.00  0.00     0.157 C 
HETATM   17  O1  UNL     1      -2.447   4.328  11.771  1.00  0.00    -0.293 OA
HETATM   18  C25 UNL     1       1.503   7.107  11.100  1.00  0.00     0.072 C 
HETATM   19  C26 UNL     1       2.494   5.942  11.382  1.00  0.00     0.030 C 
HETATM   20  C28 UNL     1       2.128   8.460  11.537  1.00  0.00     0.139 C 
HETATM   21  C29 UNL     1       1.914   8.738  13.020  1.00  0.00     0.065 C 
HETATM   22  C30 UNL     1       0.442   8.766  13.447  1.00  0.00     0.133 C 
ENDROOT
BRANCH   1  23
HETATM   23  C7  UNL     1      -7.076   7.176  15.335  1.00  0.00    -0.014 C 
HETATM   24  C8  UNL     1      -7.495   7.150  16.812  1.00  0.00     0.010 C 
BRANCH  23  25
HETATM   25  C6  UNL     1      -8.300   6.770  14.475  1.00  0.00     0.008 C 
BRANCH  25  26
HETATM   26  C5  UNL     1      -9.544   7.660  14.629  1.00  0.00     0.028 C 
BRANCH  26  27
HETATM   27  C4  UNL     1     -10.846   6.914  14.657  1.00  0.00    -0.025 C 
HETATM   28  C2  UNL     1     -11.948   7.134  13.912  1.00  0.00    -0.091 C 
HETATM   29  C1  UNL     1     -12.098   8.216  12.879  1.00  0.00     0.042 C 
HETATM   30  C3  UNL     1     -13.161   6.252  14.060  1.00  0.00     0.042 C 
ENDBRANCH  26  27
ENDBRANCH  25  26
ENDBRANCH  23  25
ENDBRANCH   1  23
BRANCH  22  31
HETATM   31  O5  UNL     1       0.069  10.126  13.694  1.00  0.00    -0.394 OA
HETATM   32  H46 UNL     1       0.208  10.646  12.883  1.00  0.00     0.210 HD
ENDBRANCH  22  31
BRANCH  18  33
HETATM   33  C27 UNL     1       1.295   7.135   9.582  1.00  0.00     0.151 C 
HETATM   34  O2  UNL     1       0.696   7.973   8.930  1.00  0.00    -0.649 OA
BRANCH  33  35
HETATM   35  O3  UNL     1       1.903   6.128   8.926  1.00  0.00    -0.776 OA
HETATM   36  H40 UNL     1       1.668   6.298   7.987  1.00  0.00     0.167 HD
ENDBRANCH  33  35
ENDBRANCH  18  33
BRANCH  20  37
HETATM   37  O4  UNL     1       3.534   8.477  11.275  1.00  0.00    -0.394 OA
HETATM   38  H42 UNL     1       3.866   9.373  11.465  1.00  0.00     0.210 HD
ENDBRANCH  20  37
TORSDOF 8
ENDMDL
