MODEL 1
REMARK minimizedAffinity -7.06960106
REMARK CNNscore 0.531718135
REMARK CNNaffinity 5.9761219
REMARK  8 active torsions:
REMARK  status: ('A' for Active; 'I' for Inactive)
REMARK    1  A    between atoms: C4_4  and  C5_5 
REMARK    2  A    between atoms: C5_5  and  C6_6 
REMARK    3  A    between atoms: C6_6  and  C7_7 
REMARK    4  A    between atoms: C7_7  and  C9_9 
REMARK    5  A    between atoms: C18_18  and  C20_20 
REMARK    6  A    between atoms: C20_20  and  O2_22 
REMARK    7  A    between atoms: C21_23  and  O3_24 
REMARK    8  A    between atoms: C23_26  and  O4_27 
ROOT
HETATM    1  C9  UNL     1      -4.651 -12.085   2.913  1.00  0.00    -0.002 C 
HETATM    2  C10 UNL     1      -3.158 -11.844   3.223  1.00  0.00     0.006 C 
HETATM    3  C11 UNL     1      -3.084 -11.223   4.632  1.00  0.00     0.011 C 
HETATM    4  C12 UNL     1      -4.511 -11.308   5.209  1.00  0.00    -0.032 C 
HETATM    5  C13 UNL     1      -4.647 -12.699   5.902  1.00  0.00     0.016 C 
HETATM    6  C14 UNL     1      -4.870 -10.188   6.217  1.00  0.00     0.004 C 
HETATM    7  C15 UNL     1      -4.017 -10.217   7.501  1.00  0.00     0.007 C 
HETATM    8  C16 UNL     1      -4.785 -10.576   8.766  1.00  0.00     0.007 C 
HETATM    9  C17 UNL     1      -5.907  -9.555   8.993  1.00  0.00     0.018 C 
HETATM   10  C18 UNL     1      -6.517  -9.537  10.434  1.00  0.00     0.072 C 
HETATM   11  C19 UNL     1      -5.509  -8.872  11.410  1.00  0.00     0.030 C 
HETATM   12  C21 UNL     1      -7.813  -8.690  10.409  1.00  0.00     0.139 C 
HETATM   13  C22 UNL     1      -8.876  -9.188   9.415  1.00  0.00     0.065 C 
HETATM   14  C23 UNL     1      -8.329 -10.093   8.309  1.00  0.00     0.130 C 
HETATM   15  C24 UNL     1      -6.940  -9.685   7.862  1.00  0.00    -0.001 A 
HETATM   16  C25 UNL     1      -6.888  -8.667   6.747  1.00  0.00     0.024 A 
HETATM   17  C26 UNL     1      -6.405 -10.075   6.449  1.00  0.00    -0.025 A 
HETATM   18  C27 UNL     1      -7.332 -10.954   5.583  1.00  0.00     0.011 C 
HETATM   19  C28 UNL     1      -6.816 -11.520   4.249  1.00  0.00     0.011 C 
HETATM   20  C29 UNL     1      -5.378 -11.132   3.915  1.00  0.00    -0.032 C 
HETATM   21  C30 UNL     1      -5.404  -9.683   3.353  1.00  0.00     0.016 C 
ENDROOT
BRANCH   1  22
HETATM   22  C7  UNL     1      -5.094 -12.050   1.419  1.00  0.00    -0.014 C 
HETATM   23  C8  UNL     1      -5.073 -13.469   0.835  1.00  0.00     0.010 C 
BRANCH  22  24
HETATM   24  C6  UNL     1      -4.368 -11.035   0.501  1.00  0.00     0.008 C 
BRANCH  24  25
HETATM   25  C5  UNL     1      -5.071 -10.621  -0.808  1.00  0.00     0.028 C 
BRANCH  25  26
HETATM   26  C4  UNL     1      -6.428 -10.007  -0.583  1.00  0.00    -0.025 C 
HETATM   27  C2  UNL     1      -7.216  -9.372  -1.472  1.00  0.00    -0.091 C 
HETATM   28  C1  UNL     1      -6.875  -9.117  -2.913  1.00  0.00     0.042 C 
HETATM   29  C3  UNL     1      -8.566  -8.849  -1.058  1.00  0.00     0.042 C 
ENDBRANCH  25  26
ENDBRANCH  24  25
ENDBRANCH  22  24
ENDBRANCH   1  22
BRANCH  14  30
HETATM   30  O4  UNL     1      -8.289 -11.448   8.749  1.00  0.00    -0.395 OA
HETATM   31  H39 UNL     1      -9.208 -11.755   8.822  1.00  0.00     0.210 HD
ENDBRANCH  14  30
BRANCH  10  32
HETATM   32  C20 UNL     1      -6.760 -10.921  11.042  1.00  0.00     0.151 C 
HETATM   33  O1  UNL     1      -7.681 -11.684  10.796  1.00  0.00    -0.649 OA
BRANCH  32  34
HETATM   34  O2  UNL     1      -5.758 -11.368  11.829  1.00  0.00    -0.776 OA
HETATM   35  H33 UNL     1      -6.080 -12.258  12.085  1.00  0.00     0.167 HD
ENDBRANCH  32  34
ENDBRANCH  10  32
BRANCH  12  36
HETATM   36  O3  UNL     1      -7.494  -7.326  10.067  1.00  0.00    -0.394 OA
HETATM   37  H35 UNL     1      -8.283  -6.789  10.248  1.00  0.00     0.210 HD
ENDBRANCH  12  36
TORSDOF 8
ENDMDL
