MODEL 1
REMARK minimizedAffinity -7.11311626
REMARK CNNscore 0.451785147
REMARK CNNaffinity 6.53154993
REMARK  7 active torsions:
REMARK  status: ('A' for Active; 'I' for Inactive)
REMARK    1  A    between atoms: C2_2  and  C4_4 
REMARK    2  A    between atoms: C7_7  and  O1_9 
REMARK    3  A    between atoms: C9_10  and  C10_11 
REMARK    4  A    between atoms: C11_12  and  C12_13 
REMARK    5  A    between atoms: C14_15  and  C15_16 
REMARK    6  A    between atoms: C24_26  and  C26_28 
REMARK    7  A    between atoms: C29_32  and  O4_34 
ROOT
HETATM    1  C15 UNL     1      -0.587  52.616 -11.831  1.00  0.00     0.149 C 
HETATM    2  C16 UNL     1       0.689  52.382 -12.643  1.00  0.00     0.054 C 
HETATM    3  C17 UNL     1       0.805  50.843 -12.841  1.00  0.00     0.050 C 
HETATM    4  C18 UNL     1      -0.585  50.380 -12.363  1.00  0.00     0.272 C 
HETATM    5  O2  UNL     1      -1.517  50.422 -13.440  1.00  0.00    -0.360 OA
HETATM    6  C19 UNL     1      -1.682  49.177 -14.113  1.00  0.00     0.171 C 
HETATM    7  C20 UNL     1      -0.410  48.360 -14.322  1.00  0.00     0.027 C 
HETATM    8  C21 UNL     1       0.786  49.122 -14.890  1.00  0.00     0.012 C 
HETATM    9  C22 UNL     1       1.047  50.556 -14.365  1.00  0.00     0.032 C 
HETATM   10  C23 UNL     1       2.452  51.019 -14.803  1.00  0.00    -0.066 C 
HETATM   11  C24 UNL     1       2.653  51.895 -15.823  1.00  0.00    -0.021 C 
HETATM   12  C25 UNL     1       1.576  52.520 -16.677  1.00  0.00     0.052 C 
HETATM   13  C27 UNL     1       3.552  50.423 -13.940  1.00  0.00     0.038 C 
HETATM   14  C28 UNL     1       3.332  50.688 -12.451  1.00  0.00     0.042 C 
HETATM   15  C29 UNL     1       1.945  50.233 -11.955  1.00  0.00     0.067 C 
HETATM   16  C30 UNL     1       1.825  50.531 -10.451  1.00  0.00     0.047 C 
HETATM   17  O5  UNL     1      -0.990  51.331 -11.368  1.00  0.00    -0.351 OA
ENDROOT
BRANCH   1  18
HETATM   18  C14 UNL     1      -0.385  53.593 -10.699  1.00  0.00     0.011 C 
HETATM   19  C12 UNL     1      -1.290  54.371 -10.065  1.00  0.00    -0.064 C 
HETATM   20  C13 UNL     1      -2.745  54.445 -10.457  1.00  0.00     0.048 C 
BRANCH  19  21
HETATM   21  C11 UNL     1      -0.824  55.211  -8.964  1.00  0.00     0.003 C 
HETATM   22  C10 UNL     1      -0.019  54.839  -7.952  1.00  0.00    -0.018 C 
BRANCH  22  23
HETATM   23  C9  UNL     1       0.444  55.737  -6.821  1.00  0.00     0.050 C 
HETATM   24  C4  UNL     1       1.998  55.810  -6.675  1.00  0.00     0.024 C 
HETATM   25  C5  UNL     1       2.232  55.999  -5.170  1.00  0.00     0.013 C 
HETATM   26  C6  UNL     1       1.158  55.113  -4.549  1.00  0.00     0.039 C 
HETATM   27  C7  UNL     1      -0.091  55.423  -5.384  1.00  0.00     0.062 C 
HETATM   28  C8  UNL     1      -1.149  54.329  -5.242  1.00  0.00     0.046 C 
BRANCH  24  29
HETATM   29  C2  UNL     1       2.666  56.848  -7.565  1.00  0.00    -0.088 C 
HETATM   30  C1  UNL     1       2.803  58.125  -7.159  1.00  0.00     0.014 C 
HETATM   31  C3  UNL     1       3.185  56.418  -8.911  1.00  0.00     0.043 C 
ENDBRANCH  24  29
BRANCH  27  32
HETATM   32  O1  UNL     1      -0.667  56.628  -4.849  1.00  0.00    -0.390 OA
HETATM   33  H14 UNL     1      -1.472  56.821  -5.361  1.00  0.00     0.210 HD
ENDBRANCH  27  32
ENDBRANCH  22  23
ENDBRANCH  19  21
ENDBRANCH   1  18
BRANCH  15  34
HETATM   34  O4  UNL     1       1.904  48.803 -12.082  1.00  0.00    -0.389 OA
HETATM   35  H44 UNL     1       2.591  48.420 -11.507  1.00  0.00     0.210 HD
ENDBRANCH  15  34
BRANCH  11  36
HETATM   36  C26 UNL     1       4.024  52.348 -16.232  1.00  0.00     0.265 C 
HETATM   37  O3  UNL     1       4.379  53.518 -16.165  1.00  0.00    -0.302 OA
ENDBRANCH  11  36
TORSDOF 7
ENDMDL
