MODEL 1
REMARK minimizedAffinity -8.79016113
REMARK CNNscore 0.462378174
REMARK CNNaffinity 6.80265045
REMARK  12 active torsions:
REMARK  status: ('A' for Active; 'I' for Inactive)
REMARK    1  A    between atoms: C3_3  and  O1_4 
REMARK    2  A    between atoms: N1_14  and  O2_16 
REMARK    3  A    between atoms: O2_16  and  C13_17 
REMARK    4  A    between atoms: C13_17  and  C14_18 
REMARK       I    between atoms: C14_18  and  N2_20 
REMARK    5  A    between atoms: N2_20  and  C15_21 
REMARK    6  A    between atoms: C15_21  and  C16_22 
REMARK    7  A    between atoms: C15_21  and  C26_36 
REMARK       I    between atoms: C16_22  and  N3_24 
REMARK    8  A    between atoms: N3_24  and  C17_25 
REMARK    9  A    between atoms: C17_25  and  C18_26 
REMARK   10  A    between atoms: C17_25  and  C25_33 
REMARK   11  A    between atoms: C18_26  and  C19_27 
REMARK   12  A    between atoms: C25_33  and  O6_35 
ROOT
HETATM    1  C1  UNL     1       0.576  52.068 -26.701  1.00  0.00     0.015 C 
HETATM    2  C2  UNL     1      -0.591  51.846 -26.516  1.00  0.00    -0.078 C 
HETATM    3  C3  UNL     1      -2.034  51.576 -26.312  1.00  0.00     0.128 C 
HETATM    4  C4  UNL     1      -2.353  50.161 -26.840  1.00  0.00     0.052 C 
HETATM    5  C5  UNL     1      -2.475  49.264 -25.603  1.00  0.00     0.010 C 
HETATM    6  C6  UNL     1      -1.991  50.107 -24.400  1.00  0.00     0.002 C 
HETATM    7  C7  UNL     1      -2.424  49.624 -22.986  1.00  0.00    -0.004 C 
HETATM    8  C8  UNL     1      -2.625  48.088 -22.958  1.00  0.00     0.010 C 
HETATM    9  C9  UNL     1      -3.120  47.548 -21.624  1.00  0.00     0.035 C 
HETATM   10  C10 UNL     1      -4.375  48.294 -21.255  1.00  0.00    -0.069 C 
HETATM   11  C11 UNL     1      -5.547  47.642 -21.189  1.00  0.00     0.030 C 
HETATM   12  C12 UNL     1      -6.834  48.354 -21.022  1.00  0.00     0.032 C 
HETATM   13  N1  UNL     1      -7.914  47.631 -20.924  1.00  0.00    -0.271 N 
ATOM     14  H1  UNL     1      -7.919  46.611 -20.929  1.00  0.00     0.194 HD
HETATM   15  C29 UNL     1      -6.814  49.866 -21.099  1.00  0.00     0.060 C 
HETATM   16  C30 UNL     1      -5.519  50.453 -20.550  1.00  0.00     0.020 C 
HETATM   17  C31 UNL     1      -4.203  49.789 -21.055  1.00  0.00    -0.016 C 
HETATM   18  C32 UNL     1      -3.181  50.029 -19.900  1.00  0.00     0.020 C 
HETATM   19  C33 UNL     1      -3.607  50.440 -22.364  1.00  0.00     0.002 C 
HETATM   20  C34 UNL     1      -4.609  50.810 -23.461  1.00  0.00     0.007 C 
HETATM   21  C35 UNL     1      -3.998  51.647 -24.607  1.00  0.00     0.014 C 
HETATM   22  C36 UNL     1      -2.453  51.528 -24.797  1.00  0.00     0.003 C 
HETATM   23  C37 UNL     1      -1.751  52.653 -23.999  1.00  0.00     0.020 C 
ENDROOT
BRANCH   3  24
HETATM   24  O1  UNL     1      -2.743  52.568 -27.043  1.00  0.00    -0.377 OA
HETATM   25  H2  UNL     1      -3.669  52.303 -27.118  1.00  0.00     0.211 HD
ENDBRANCH   3  24
BRANCH  13  26
HETATM   26  O2  UNL     1      -9.066  48.419 -20.812  1.00  0.00    -0.271 OA
BRANCH  26  27
HETATM   27  C13 UNL     1      -9.626  48.232 -19.516  1.00  0.00     0.303 C 
BRANCH  27  28
HETATM   28  C14 UNL     1     -10.657  47.117 -19.543  1.00  0.00     0.244 C 
HETATM   29  O3  UNL     1     -10.347  45.938 -19.698  1.00  0.00    -0.271 OA
HETATM   30  N2  UNL     1     -11.951  47.521 -19.313  1.00  0.00    -0.346 N 
HETATM   31  H16 UNL     1     -12.167  48.517 -19.330  1.00  0.00     0.163 HD
BRANCH  30  32
HETATM   32  C15 UNL     1     -13.081  46.590 -19.342  1.00  0.00     0.180 C 
BRANCH  32  33
HETATM   33  C16 UNL     1     -14.007  47.032 -20.496  1.00  0.00     0.241 C 
HETATM   34  O4  UNL     1     -13.737  47.987 -21.227  1.00  0.00    -0.271 OA
HETATM   35  N3  UNL     1     -15.147  46.283 -20.660  1.00  0.00    -0.345 N 
HETATM   36  H18 UNL     1     -15.229  45.396 -20.171  1.00  0.00     0.163 HD
BRANCH  35  37
HETATM   37  C17 UNL     1     -16.034  46.446 -21.816  1.00  0.00     0.186 C 
BRANCH  37  38
HETATM   38  C18 UNL     1     -17.518  46.535 -21.425  1.00  0.00     0.074 C 
BRANCH  38  39
HETATM   39  C19 UNL     1     -18.491  46.131 -22.512  1.00  0.00    -0.056 A 
HETATM   40  C20 UNL     1     -19.265  44.971 -22.377  1.00  0.00     0.007 A 
HETATM   41  C21 UNL     1     -20.147  44.580 -23.386  1.00  0.00     0.001 A 
HETATM   42  C22 UNL     1     -20.271  45.349 -24.541  1.00  0.00     0.000 A 
HETATM   43  C23 UNL     1     -19.521  46.514 -24.681  1.00  0.00     0.001 A 
HETATM   44  C24 UNL     1     -18.639  46.908 -23.670  1.00  0.00     0.007 A 
ENDBRANCH  38  39
ENDBRANCH  37  38
BRANCH  37  45
HETATM   45  C25 UNL     1     -15.790  45.331 -22.836  1.00  0.00     0.163 C 
HETATM   46  O5  UNL     1     -15.786  45.449 -24.051  1.00  0.00    -0.648 OA
BRANCH  45  47
HETATM   47  O6  UNL     1     -15.565  44.120 -22.276  1.00  0.00    -0.775 OA
HETATM   48  H27 UNL     1     -15.419  43.532 -23.049  1.00  0.00     0.167 HD
ENDBRANCH  45  47
ENDBRANCH  37  45
ENDBRANCH  35  37
ENDBRANCH  32  33
BRANCH  32  49
HETATM   49  C26 UNL     1     -13.766  46.507 -17.957  1.00  0.00     0.009 C 
HETATM   50  C27 UNL     1     -12.817  46.057 -16.849  1.00  0.00     0.012 C 
HETATM   51  C28 UNL     1     -14.465  47.809 -17.570  1.00  0.00     0.012 C 
ENDBRANCH  32  49
ENDBRANCH  30  32
ENDBRANCH  27  28
ENDBRANCH  26  27
ENDBRANCH  13  26
TORSDOF 12
ENDMDL
