MODEL 1
REMARK minimizedAffinity -8.77627087
REMARK CNNscore 0.76803869
REMARK CNNaffinity 8.11514187
REMARK  13 active torsions:
REMARK  status: ('A' for Active; 'I' for Inactive)
REMARK    1  A    between atoms: C19_21  and  O3_22 
REMARK    2  A    between atoms: C19_21  and  C20_23 
REMARK    3  A    between atoms: C20_23  and  C21_25 
REMARK    4  A    between atoms: C21_25  and  O5_26 
REMARK    5  A    between atoms: O5_26  and  C22_27 
REMARK    6  A    between atoms: C22_27  and  C23_29 
REMARK    7  A    between atoms: C23_29  and  C24_30 
REMARK    8  A    between atoms: C24_30  and  C25_31 
REMARK       I    between atoms: C25_31  and  N1_33 
REMARK    9  A    between atoms: N1_33  and  C26_34 
REMARK   10  A    between atoms: C26_34  and  C27_35 
REMARK   11  A    between atoms: C27_35  and  C28_36 
REMARK   12  A    between atoms: C31_39  and  O8_40 
REMARK   13  A    between atoms: C32_41  and  O9_42 
ROOT
HETATM    1  C20 UNL     1      -3.804  49.478 -20.072  1.00  0.00     0.185 C 
HETATM    2  O4  UNL     1      -3.077  49.255 -21.051  1.00  0.00    -0.292 OA
ENDROOT
BRANCH   1   3
HETATM    3  C19 UNL     1      -3.212  49.328 -18.641  1.00  0.00     0.128 C 
HETATM    4  C14 UNL     1      -2.323  50.512 -18.125  1.00  0.00     0.005 C 
HETATM    5  C13 UNL     1      -2.415  50.711 -16.587  1.00  0.00     0.091 C 
HETATM    6  C15 UNL     1      -2.748  51.851 -18.762  1.00  0.00     0.019 C 
HETATM    7  C16 UNL     1      -0.881  50.105 -18.562  1.00  0.00     0.002 C 
HETATM    8  C12 UNL     1      -1.464  49.822 -15.821  1.00  0.00     0.133 C 
HETATM    9  C11 UNL     1       0.022  49.947 -16.139  1.00  0.00     0.072 C 
HETATM   10  O2  UNL     1      -1.856  49.067 -14.932  1.00  0.00    -0.297 OA
HETATM   11  C2  UNL     1       0.823  50.673 -14.996  1.00  0.00    -0.009 C 
HETATM   12  C10 UNL     1       0.255  50.486 -17.574  1.00  0.00     0.003 C 
HETATM   13  C1  UNL     1      -0.006  51.742 -14.246  1.00  0.00     0.021 C 
HETATM   14  C3  UNL     1       1.253  49.581 -13.968  1.00  0.00     0.022 C 
HETATM   15  C7  UNL     1       2.054  51.383 -15.567  1.00  0.00    -0.067 C 
HETATM   16  C4  UNL     1       2.334  50.040 -12.998  1.00  0.00     0.084 C 
HETATM   17  C5  UNL     1       3.530  50.536 -13.766  1.00  0.00     0.149 C 
HETATM   18  O1  UNL     1       4.683  50.401 -13.356  1.00  0.00    -0.293 OA
HETATM   19  C6  UNL     1       3.283  51.284 -15.023  1.00  0.00     0.053 C 
HETATM   20  C8  UNL     1       1.859  52.267 -16.778  1.00  0.00     0.035 C 
HETATM   21  C9  UNL     1       0.583  51.980 -17.573  1.00  0.00     0.010 C 
HETATM   22  C17 UNL     1      -0.918  48.574 -18.797  1.00  0.00     0.009 C 
HETATM   23  C18 UNL     1      -2.327  48.100 -18.475  1.00  0.00     0.047 C 
BRANCH   3  24
HETATM   24  O3  UNL     1      -4.357  49.150 -17.795  1.00  0.00    -0.381 OA
HETATM   25  H25 UNL     1      -5.055  49.743 -18.140  1.00  0.00     0.211 HD
ENDBRANCH   3  24
ENDBRANCH   1   3
BRANCH   1  26
HETATM   26  C21 UNL     1      -5.266  49.888 -20.247  1.00  0.00     0.260 C 
BRANCH  26  27
HETATM   27  O5  UNL     1      -6.064  48.866 -20.849  1.00  0.00    -0.314 OA
BRANCH  27  28
HETATM   28  C22 UNL     1      -6.560  49.195 -22.075  1.00  0.00     0.259 C 
HETATM   29  O6  UNL     1      -7.510  49.943 -22.261  1.00  0.00    -0.265 OA
BRANCH  28  30
HETATM   30  C23 UNL     1      -5.770  48.493 -23.151  1.00  0.00     0.120 C 
BRANCH  30  31
HETATM   31  C24 UNL     1      -5.398  49.457 -24.271  1.00  0.00     0.112 C 
BRANCH  31  32
HETATM   32  C25 UNL     1      -3.903  49.478 -24.518  1.00  0.00     0.218 C 
HETATM   33  O7  UNL     1      -3.230  48.464 -24.667  1.00  0.00    -0.274 OA
HETATM   34  N1  UNL     1      -3.390  50.754 -24.601  1.00  0.00    -0.361 N 
HETATM   35  H32 UNL     1      -3.975  51.522 -24.287  1.00  0.00     0.162 HD
BRANCH  34  36
HETATM   36  C26 UNL     1      -1.962  50.997 -24.666  1.00  0.00     0.127 C 
BRANCH  36  37
HETATM   37  C27 UNL     1      -1.245  50.696 -23.341  1.00  0.00     0.058 C 
BRANCH  37  38
HETATM   38  C28 UNL     1      -0.311  51.810 -22.923  1.00  0.00    -0.054 A 
HETATM   39  C29 UNL     1       0.139  51.889 -21.593  1.00  0.00     0.010 A 
HETATM   40  C30 UNL     1       0.962  52.937 -21.178  1.00  0.00     0.040 A 
HETATM   41  C31 UNL     1       1.340  53.901 -22.098  1.00  0.00     0.098 A 
HETATM   42  C32 UNL     1       0.911  53.832 -23.422  1.00  0.00     0.099 A 
HETATM   43  C33 UNL     1       0.085  52.795 -23.844  1.00  0.00     0.046 A 
BRANCH  41  44
HETATM   44  O8  UNL     1       2.139  54.934 -21.695  1.00  0.00    -0.358 OA
HETATM   45  H39 UNL     1       2.265  55.472 -22.501  1.00  0.00     0.217 HD
ENDBRANCH  41  44
BRANCH  42  46
HETATM   46  O9  UNL     1       1.322  54.819 -24.274  1.00  0.00    -0.358 OA
HETATM   47  H40 UNL     1       1.013  54.598 -25.169  1.00  0.00     0.217 HD
ENDBRANCH  42  46
ENDBRANCH  37  38
ENDBRANCH  36  37
ENDBRANCH  34  36
ENDBRANCH  31  32
ENDBRANCH  30  31
ENDBRANCH  28  30
ENDBRANCH  27  28
ENDBRANCH  26  27
ENDBRANCH   1  26
TORSDOF 13
ENDMDL
