MODEL 1
REMARK minimizedAffinity -7.77309275
REMARK CNNscore 0.471608877
REMARK CNNaffinity 6.93143129
REMARK  19 active torsions:
REMARK  status: ('A' for Active; 'I' for Inactive)
REMARK    1  A    between atoms: C2_2  and  C3_3 
REMARK    2  A    between atoms: C3_3  and  C5_5 
REMARK    3  A    between atoms: C5_5  and  N1_6 
REMARK    4  A    between atoms: C5_5  and  C37_46 
REMARK       I    between atoms: N1_6  and  C6_7 
REMARK    5  A    between atoms: C6_7  and  C7_9 
REMARK    6  A    between atoms: C7_9  and  C8_10 
REMARK    7  A    between atoms: C8_10  and  C9_11 
REMARK    8  A    between atoms: C9_11  and  C10_12 
REMARK    9  A    between atoms: C10_12  and  C11_13 
REMARK   10  A    between atoms: C11_13  and  N2_14 
REMARK       I    between atoms: N2_14  and  C12_15 
REMARK   11  A    between atoms: C12_15  and  C13_17 
REMARK   12  A    between atoms: C13_17  and  C14_18 
REMARK   13  A    between atoms: C14_18  and  C15_19 
REMARK   14  A    between atoms: C15_19  and  O4_21 
REMARK   15  A    between atoms: O4_21  and  C16_22 
REMARK   16  A    between atoms: C16_22  and  C17_23 
REMARK   17  A    between atoms: C17_23  and  C18_25 
REMARK   18  A    between atoms: C18_25  and  O6_26 
REMARK   19  A    between atoms: C37_46  and  O9_48 
ROOT
HETATM    1  C15 UNL     1       0.786  51.837 -16.708  1.00  0.00     0.259 C 
HETATM    2  O3  UNL     1       1.775  52.554 -16.641  1.00  0.00    -0.265 OA
ENDROOT
BRANCH   1   3
HETATM    3  C14 UNL     1       0.209  51.332 -18.010  1.00  0.00     0.120 C 
BRANCH   3   4
HETATM    4  C13 UNL     1      -0.854  50.257 -17.835  1.00  0.00     0.112 C 
BRANCH   4   5
HETATM    5  C12 UNL     1      -2.168  50.702 -18.435  1.00  0.00     0.217 C 
HETATM    6  N2  UNL     1      -2.738  49.785 -19.292  1.00  0.00    -0.361 N 
HETATM    7  H22 UNL     1      -2.137  49.073 -19.679  1.00  0.00     0.162 HD
HETATM    8  O2  UNL     1      -2.691  51.764 -18.116  1.00  0.00    -0.274 OA
BRANCH   6   9
HETATM    9  C11 UNL     1      -3.940  50.134 -20.022  1.00  0.00     0.122 C 
BRANCH   9  10
HETATM   10  C10 UNL     1      -3.671  51.028 -21.232  1.00  0.00     0.020 C 
BRANCH  10  11
HETATM   11  C9  UNL     1      -3.991  50.383 -22.587  1.00  0.00     0.002 C 
BRANCH  11  12
HETATM   12  C8  UNL     1      -3.013  50.747 -23.708  1.00  0.00     0.009 C 
BRANCH  12  13
HETATM   13  C7  UNL     1      -3.380  52.076 -24.374  1.00  0.00     0.103 C 
BRANCH  13  14
HETATM   14  C6  UNL     1      -2.270  52.624 -25.255  1.00  0.00     0.218 C 
HETATM   15  N1  UNL     1      -2.293  52.107 -26.534  1.00  0.00    -0.346 N 
HETATM   16  H11 UNL     1      -2.755  51.212 -26.638  1.00  0.00     0.163 HD
HETATM   17  O1  UNL     1      -1.430  53.426 -24.865  1.00  0.00    -0.274 OA
BRANCH  15  18
HETATM   18  C5  UNL     1      -1.174  52.346 -27.452  1.00  0.00     0.186 C 
BRANCH  18  19
HETATM   19  C3  UNL     1       0.161  51.800 -26.888  1.00  0.00     0.014 C 
HETATM   20  C4  UNL     1       0.024  50.379 -26.325  1.00  0.00     0.012 C 
BRANCH  19  21
HETATM   21  C2  UNL     1       1.264  51.880 -27.967  1.00  0.00     0.002 C 
HETATM   22  C1  UNL     1       2.668  51.671 -27.419  1.00  0.00     0.005 C 
ENDBRANCH  19  21
ENDBRANCH  18  19
BRANCH  18  23
HETATM   23  C37 UNL     1      -1.041  53.838 -27.788  1.00  0.00     0.163 C 
HETATM   24  O8  UNL     1      -0.176  54.596 -27.378  1.00  0.00    -0.648 OA
BRANCH  23  25
HETATM   25  O9  UNL     1      -2.040  54.319 -28.563  1.00  0.00    -0.775 OA
HETATM   26  H56 UNL     1      -1.807  55.268 -28.669  1.00  0.00     0.167 HD
ENDBRANCH  23  25
ENDBRANCH  18  23
ENDBRANCH  15  18
ENDBRANCH  13  14
ENDBRANCH  12  13
ENDBRANCH  11  12
ENDBRANCH  10  11
ENDBRANCH   9  10
ENDBRANCH   6   9
ENDBRANCH   4   5
ENDBRANCH   3   4
ENDBRANCH   1   3
BRANCH   1  27
HETATM   27  O4  UNL     1       0.027  51.457 -15.642  1.00  0.00    -0.314 OA
BRANCH  27  28
HETATM   28  C16 UNL     1       0.645  51.711 -14.380  1.00  0.00     0.260 C 
BRANCH  28  29
HETATM   29  C17 UNL     1       0.501  50.533 -13.421  1.00  0.00     0.185 C 
HETATM   30  O5  UNL     1       0.038  49.465 -13.831  1.00  0.00    -0.292 OA
BRANCH  29  31
HETATM   31  C18 UNL     1       1.070  50.691 -11.981  1.00  0.00     0.128 C 
HETATM   32  C19 UNL     1       2.027  49.522 -11.622  1.00  0.00     0.047 C 
HETATM   33  C20 UNL     1       3.088  50.098 -10.670  1.00  0.00     0.009 C 
HETATM   34  C21 UNL     1       2.702  51.565 -10.475  1.00  0.00     0.002 C 
HETATM   35  C22 UNL     1       3.835  52.529 -10.073  1.00  0.00    -0.004 C 
HETATM   36  C35 UNL     1       1.983  51.949 -11.786  1.00  0.00    -0.002 C 
HETATM   37  C23 UNL     1       4.308  52.217  -8.636  1.00  0.00     0.010 C 
HETATM   38  C32 UNL     1       3.411  54.030 -10.297  1.00  0.00     0.002 C 
HETATM   39  C24 UNL     1       3.617  53.077  -7.588  1.00  0.00     0.035 C 
HETATM   40  C25 UNL     1       3.825  54.551  -7.826  1.00  0.00    -0.068 C 
HETATM   41  C26 UNL     1       3.768  55.406  -6.787  1.00  0.00     0.053 C 
HETATM   42  C30 UNL     1       4.070  55.014  -9.259  1.00  0.00    -0.016 C 
HETATM   43  C27 UNL     1       3.931  56.871  -6.962  1.00  0.00     0.149 C 
HETATM   44  O7  UNL     1       3.968  57.594  -5.968  1.00  0.00    -0.293 OA
HETATM   45  C28 UNL     1       4.080  57.425  -8.360  1.00  0.00     0.084 C 
HETATM   46  C29 UNL     1       3.512  56.459  -9.399  1.00  0.00     0.022 C 
HETATM   47  C31 UNL     1       5.598  55.073  -9.541  1.00  0.00     0.020 C 
HETATM   48  C33 UNL     1       1.872  54.159 -10.439  1.00  0.00     0.007 C 
HETATM   49  C34 UNL     1       1.253  53.286 -11.551  1.00  0.00     0.013 C 
HETATM   50  C36 UNL     1       2.962  52.098 -12.984  1.00  0.00     0.019 C 
BRANCH  31  51
HETATM   51  O6  UNL     1       0.048  50.656 -10.979  1.00  0.00    -0.381 OA
HETATM   52  H29 UNL     1      -0.752  51.073 -11.350  1.00  0.00     0.211 HD
ENDBRANCH  31  51
ENDBRANCH  29  31
ENDBRANCH  28  29
ENDBRANCH  27  28
ENDBRANCH   1  27
TORSDOF 19
ENDMDL
