MODEL 1
REMARK minimizedAffinity -8.3003931
REMARK  10 active torsions:
REMARK  status: ('A' for Active; 'I' for Inactive)
REMARK    1  A    between atoms: C5_5  and  C6_6 
REMARK    2  A    between atoms: C6_6  and  C8_8 
REMARK    3  A    between atoms: C8_8  and  O1_9 
REMARK    4  A    between atoms: O1_9  and  C9_10 
REMARK    5  A    between atoms: C15_18  and  O4_20 
REMARK    6  A    between atoms: C17_21  and  O5_22 
REMARK    7  A    between atoms: C20_25  and  O6_27 
REMARK    8  A    between atoms: O6_27  and  C22_28 
REMARK    9  A    between atoms: C22_28  and  C23_30 
REMARK   10  A    between atoms: C23_30  and  C24_31 
ROOT
HETATM    1  C1  UNL     1      -2.634   6.999  15.864  1.00  0.00     0.015 C 
HETATM    2  C2  UNL     1      -2.283   6.709  14.599  1.00  0.00    -0.082 C 
HETATM    3  C3  UNL     1      -3.294   6.748  13.490  1.00  0.00     0.034 C 
HETATM    4  C4  UNL     1      -3.246   5.447  12.689  1.00  0.00     0.010 C 
HETATM    5  C5  UNL     1      -1.900   5.332  11.951  1.00  0.00    -0.001 C 
HETATM    6  C11 UNL     1      -0.730   5.361  12.962  1.00  0.00     0.033 C 
HETATM    7  C12 UNL     1       0.711   5.710  12.467  1.00  0.00     0.162 C 
HETATM    8  O3  UNL     1       1.241   6.459  13.565  1.00  0.00    -0.376 OA
HETATM    9  C13 UNL     1       0.172   7.283  14.044  1.00  0.00     0.133 C 
HETATM   10  C14 UNL     1       0.754   8.058  15.206  1.00  0.00     0.072 C 
HETATM   11  C15 UNL     1       1.778   9.132  14.718  1.00  0.00     0.082 C 
HETATM   12  C16 UNL     1       2.503   9.675  15.965  1.00  0.00     0.049 C 
HETATM   13  C17 UNL     1       2.865   8.666  13.663  1.00  0.00     0.152 C 
HETATM   14  C18 UNL     1       2.425   8.586  12.164  1.00  0.00     0.038 C 
HETATM   15  C19 UNL     1       2.489   7.236  11.386  1.00  0.00     0.043 C 
HETATM   16  C20 UNL     1       1.127   6.468  11.145  1.00  0.00     0.093 C 
HETATM   17  C21 UNL     1       0.093   7.420  10.526  1.00  0.00     0.049 C 
HETATM   18  C26 UNL     1      -0.898   6.228  14.258  1.00  0.00     0.050 C 
ENDROOT
BRANCH   5  19
HETATM   19  C6  UNL     1      -1.793   4.105  10.988  1.00  0.00     0.010 C 
HETATM   20  C7  UNL     1      -0.992   2.933  11.570  1.00  0.00     0.012 C 
BRANCH  19  21
HETATM   21  C8  UNL     1      -3.166   3.618  10.478  1.00  0.00     0.183 C 
BRANCH  21  22
HETATM   22  O1  UNL     1      -3.769   2.681  11.380  1.00  0.00    -0.321 OA
BRANCH  22  23
HETATM   23  C9  UNL     1      -5.127   2.613  11.378  1.00  0.00     0.254 C 
HETATM   24  C10 UNL     1      -5.562   1.185  11.255  1.00  0.00     0.126 C 
HETATM   25  O2  UNL     1      -5.893   3.561  11.473  1.00  0.00    -0.266 OA
ENDBRANCH  22  23
ENDBRANCH  21  22
ENDBRANCH  19  21
ENDBRANCH   5  19
BRANCH  16  26
HETATM   26  O6  UNL     1       1.366   5.358  10.206  1.00  0.00    -0.308 OA
BRANCH  26  27
HETATM   27  C22 UNL     1       2.540   5.202   9.537  1.00  0.00     0.259 C 
HETATM   28  O7  UNL     1       3.339   4.291   9.695  1.00  0.00    -0.265 OA
BRANCH  27  29
HETATM   29  C23 UNL     1       2.750   6.383   8.615  1.00  0.00     0.111 C 
BRANCH  29  30
HETATM   30  C24 UNL     1       2.477   6.046   7.152  1.00  0.00     0.005 C 
HETATM   31  C25 UNL     1       1.837   7.204   6.401  1.00  0.00     0.005 C 
ENDBRANCH  29  30
ENDBRANCH  27  29
ENDBRANCH  26  27
ENDBRANCH  16  26
BRANCH  11  32
HETATM   32  O4  UNL     1       1.033  10.227  14.155  1.00  0.00    -0.388 OA
HETATM   33  H25 UNL     1       0.516  10.642  14.869  1.00  0.00     0.210 HD
ENDBRANCH  11  32
BRANCH  13  34
HETATM   34  O5  UNL     1       3.545   7.490  14.095  1.00  0.00    -0.393 OA
HETATM   35  H27 UNL     1       2.874   6.776  14.062  1.00  0.00     0.210 HD
ENDBRANCH  13  34
TORSDOF 10
ENDMDL
