MODEL 1
REMARK minimizedAffinity -10.1007576
REMARK  8 active torsions:
REMARK  status: ('A' for Active; 'I' for Inactive)
REMARK    1  A    between atoms: C4_4  and  C5_5 
REMARK    2  A    between atoms: C5_5  and  C6_6 
REMARK    3  A    between atoms: C6_6  and  C7_7 
REMARK    4  A    between atoms: C7_7  and  C9_9 
REMARK    5  A    between atoms: C19_19  and  C21_21 
REMARK    6  A    between atoms: C21_21  and  O2_23 
REMARK    7  A    between atoms: C22_24  and  O3_25 
REMARK    8  A    between atoms: C24_27  and  O4_28 
ROOT
HETATM    1  C9  UNL     1      -2.184   5.512  13.609  1.00  0.00    -0.002 C 
HETATM    2  C10 UNL     1      -2.160   4.689  12.288  1.00  0.00     0.006 C 
HETATM    3  C11 UNL     1      -1.120   5.347  11.361  1.00  0.00     0.011 C 
HETATM    4  C12 UNL     1      -0.216   6.163  12.304  1.00  0.00    -0.028 C 
HETATM    5  C13 UNL     1       0.696   5.095  13.051  1.00  0.00     0.016 C 
HETATM    6  C14 UNL     1       0.757   7.251  11.639  1.00  0.00    -0.028 C 
HETATM    7  C15 UNL     1       0.062   8.247  10.667  1.00  0.00     0.016 C 
HETATM    8  C16 UNL     1       1.805   6.492  10.741  1.00  0.00     0.011 C 
HETATM    9  C17 UNL     1       3.139   7.200  10.553  1.00  0.00     0.007 C 
HETATM   10  C18 UNL     1       3.849   7.350  11.909  1.00  0.00     0.018 C 
HETATM   11  C19 UNL     1       5.283   8.003  11.799  1.00  0.00     0.072 C 
HETATM   12  C20 UNL     1       5.330   9.162  10.778  1.00  0.00     0.030 C 
HETATM   13  C22 UNL     1       5.807   8.460  13.198  1.00  0.00     0.139 C 
HETATM   14  C23 UNL     1       5.094   7.741  14.335  1.00  0.00     0.065 C 
HETATM   15  C24 UNL     1       3.597   8.049  14.348  1.00  0.00     0.130 C 
HETATM   16  C25 UNL     1       2.979   8.060  12.950  1.00  0.00    -0.000 A 
HETATM   17  C26 UNL     1       2.273   9.304  12.479  1.00  0.00     0.024 A 
HETATM   18  C27 UNL     1       1.422   8.084  12.811  1.00  0.00    -0.021 A 
HETATM   19  C28 UNL     1       0.492   8.433  14.001  1.00  0.00     0.012 C 
HETATM   20  C29 UNL     1      -0.511   7.369  14.465  1.00  0.00     0.011 C 
HETATM   21  C30 UNL     1      -1.299   6.774  13.288  1.00  0.00    -0.032 C 
HETATM   22  C31 UNL     1      -2.213   7.875  12.703  1.00  0.00     0.016 C 
ENDROOT
BRANCH   1  23
HETATM   23  C7  UNL     1      -3.602   5.585  14.257  1.00  0.00    -0.014 C 
HETATM   24  C8  UNL     1      -3.575   6.397  15.559  1.00  0.00     0.010 C 
BRANCH  23  25
HETATM   25  C6  UNL     1      -4.767   6.036  13.342  1.00  0.00     0.008 C 
BRANCH  25  26
HETATM   26  C5  UNL     1      -5.918   5.019  13.251  1.00  0.00     0.028 C 
BRANCH  26  27
HETATM   27  C4  UNL     1      -5.626   3.853  12.350  1.00  0.00    -0.025 C 
HETATM   28  C2  UNL     1      -6.352   2.732  12.174  1.00  0.00    -0.091 C 
HETATM   29  C1  UNL     1      -7.664   2.429  12.845  1.00  0.00     0.042 C 
HETATM   30  C3  UNL     1      -5.879   1.654  11.234  1.00  0.00     0.042 C 
ENDBRANCH  26  27
ENDBRANCH  25  26
ENDBRANCH  23  25
ENDBRANCH   1  23
BRANCH  15  31
HETATM   31  O4  UNL     1       2.966   7.041  15.136  1.00  0.00    -0.395 OA
HETATM   32  H41 UNL     1       3.260   7.173  16.052  1.00  0.00     0.210 HD
ENDBRANCH  15  31
BRANCH  11  33
HETATM   33  C21 UNL     1       6.257   6.925  11.311  1.00  0.00     0.151 C 
HETATM   34  O1  UNL     1       7.146   7.045  10.485  1.00  0.00    -0.649 OA
BRANCH  33  35
HETATM   35  O2  UNL     1       6.044   5.713  11.867  1.00  0.00    -0.776 OA
HETATM   36  H35 UNL     1       6.741   5.147  11.469  1.00  0.00     0.167 HD
ENDBRANCH  33  35
ENDBRANCH  11  33
BRANCH  13  37
HETATM   37  O3  UNL     1       5.650   9.866  13.418  1.00  0.00    -0.394 OA
HETATM   38  H37 UNL     1       6.344  10.323  12.910  1.00  0.00     0.210 HD
ENDBRANCH  13  37
TORSDOF 8
ENDMDL
