MODEL 1
REMARK minimizedAffinity -9.3712244
REMARK CNNscore 0.689103723
REMARK CNNaffinity 7.47843027
REMARK  9 active torsions:
REMARK  status: ('A' for Active; 'I' for Inactive)
REMARK    1  A    between atoms: C3_3  and  C4_4 
REMARK    2  A    between atoms: C3_3  and  C27_30 
REMARK    3  A    between atoms: C4_4  and  C5_5 
REMARK    4  A    between atoms: C5_5  and  C6_6 
REMARK    5  A    between atoms: C6_6  and  C8_8 
REMARK    6  A    between atoms: C15_15  and  O1_16 
REMARK    7  A    between atoms: C18_19  and  C19_20 
REMARK    8  A    between atoms: C19_20  and  O2_21 
REMARK    9  A    between atoms: C22_24  and  O3_25 
ROOT
HETATM    1  C8  UNL     1      -1.494   5.665  12.603  1.00  0.00     0.001 C 
HETATM    2  C9  UNL     1      -1.920   4.386  11.843  1.00  0.00     0.006 C 
HETATM    3  C10 UNL     1      -3.450   4.282  11.986  1.00  0.00     0.010 C 
HETATM    4  C11 UNL     1      -3.867   5.600  12.642  1.00  0.00     0.026 C 
HETATM    5  C12 UNL     1      -5.221   5.759  13.298  1.00  0.00    -0.072 C 
HETATM    6  C13 UNL     1      -5.409   6.718  14.243  1.00  0.00    -0.064 C 
HETATM    7  C14 UNL     1      -4.239   7.590  14.722  1.00  0.00     0.068 C 
HETATM    8  C15 UNL     1      -2.879   7.387  14.009  1.00  0.00     0.131 C 
HETATM    9  C16 UNL     1      -2.678   5.918  13.588  1.00  0.00    -0.006 C 
HETATM   10  C17 UNL     1      -2.620   4.982  14.820  1.00  0.00     0.019 C 
HETATM   11  C18 UNL     1      -6.790   6.924  14.936  1.00  0.00     0.009 C 
HETATM   12  C20 UNL     1      -7.125   8.432  15.190  1.00  0.00     0.019 C 
HETATM   13  C21 UNL     1      -8.560   8.877  14.859  1.00  0.00     0.033 C 
HETATM   14  C22 UNL     1      -9.642   7.850  15.170  1.00  0.00     0.118 C 
HETATM   15  C23 UNL     1      -9.334   6.459  14.608  1.00  0.00     0.037 C 
HETATM   16  C24 UNL     1      -7.917   6.347  14.017  1.00  0.00     0.003 C 
HETATM   17  C25 UNL     1      -7.621   4.913  13.583  1.00  0.00     0.010 C 
HETATM   18  C26 UNL     1      -6.316   4.850  12.792  1.00  0.00     0.035 C 
ENDROOT
BRANCH   1  19
HETATM   19  C6  UNL     1      -0.036   5.688  13.152  1.00  0.00    -0.013 C 
HETATM   20  C7  UNL     1       0.050   6.726  14.287  1.00  0.00     0.010 C 
BRANCH  19  21
HETATM   21  C5  UNL     1       1.064   5.985  12.104  1.00  0.00     0.009 C 
BRANCH  21  22
HETATM   22  C4  UNL     1       0.631   5.912  10.627  1.00  0.00     0.034 C 
BRANCH  22  23
HETATM   23  C3  UNL     1       1.035   7.103   9.773  1.00  0.00    -0.081 C 
HETATM   24  C2  UNL     1       0.432   8.308   9.872  1.00  0.00    -0.028 C 
HETATM   25  C1  UNL     1      -0.719   8.687  10.751  1.00  0.00     0.036 C 
BRANCH  23  26
HETATM   26  C27 UNL     1       2.239   6.865   8.856  1.00  0.00     0.006 C 
HETATM   27  C28 UNL     1       1.988   7.151   7.369  1.00  0.00     0.014 C 
HETATM   28  C29 UNL     1       3.451   7.667   9.345  1.00  0.00     0.014 C 
ENDBRANCH  23  26
ENDBRANCH  22  23
ENDBRANCH  21  22
ENDBRANCH  19  21
ENDBRANCH   1  19
BRANCH   8  29
HETATM   29  O1  UNL     1      -1.824   7.869  14.840  1.00  0.00    -0.394 OA
HETATM   30  H22 UNL     1      -1.799   7.335  15.649  1.00  0.00     0.210 HD
ENDBRANCH   8  29
BRANCH  11  31
HETATM   31  C19 UNL     1      -6.657   6.175  16.306  1.00  0.00     0.178 C 
BRANCH  31  32
HETATM   32  O2  UNL     1      -7.171   6.904  17.413  1.00  0.00    -0.400 OA
HETATM   33  H28 UNL     1      -7.086   6.320  18.191  1.00  0.00     0.209 HD
ENDBRANCH  31  32
ENDBRANCH  11  31
BRANCH  14  34
HETATM   34  O3  UNL     1      -9.844   7.781  16.579  1.00  0.00    -0.396 OA
HETATM   35  H34 UNL     1      -9.066   7.309  16.946  1.00  0.00     0.210 HD
ENDBRANCH  14  34
TORSDOF 9
ENDMDL
