MODEL 1
REMARK minimizedAffinity -7.96144295
REMARK CNNscore 0.638125122
REMARK CNNaffinity 7.14694071
REMARK  10 active torsions:
REMARK  status: ('A' for Active; 'I' for Inactive)
REMARK    1  A    between atoms: C3_3  and  O1_4 
REMARK    2  A    between atoms: N1_14  and  O2_16 
REMARK    3  A    between atoms: O2_16  and  C13_17 
REMARK    4  A    between atoms: C13_17  and  C14_18 
REMARK       I    between atoms: C14_18  and  N2_20 
REMARK    5  A    between atoms: N2_20  and  C15_21 
REMARK    6  A    between atoms: C15_21  and  C16_22 
REMARK    7  A    between atoms: C15_21  and  C19_29 
REMARK       I    between atoms: C16_22  and  N3_24 
REMARK    8  A    between atoms: N3_24  and  C17_25 
REMARK    9  A    between atoms: C17_25  and  C18_26 
REMARK   10  A    between atoms: C18_26  and  O6_28 
ROOT
HETATM    1  C1  UNL     1      -6.332   6.317  15.194  1.00  0.00     0.015 C 
HETATM    2  C2  UNL     1      -5.315   6.950  15.231  1.00  0.00    -0.078 C 
HETATM    3  C3  UNL     1      -4.066   7.738  15.321  1.00  0.00     0.128 C 
HETATM    4  C4  UNL     1      -3.007   6.930  16.093  1.00  0.00     0.052 C 
HETATM    5  C5  UNL     1      -2.204   6.160  15.042  1.00  0.00     0.010 C 
HETATM    6  C6  UNL     1      -2.704   6.640  13.658  1.00  0.00     0.002 C 
HETATM    7  C7  UNL     1      -1.642   6.666  12.534  1.00  0.00    -0.004 C 
HETATM    8  C8  UNL     1      -0.960   5.295  12.382  1.00  0.00     0.010 C 
HETATM    9  C9  UNL     1       0.062   5.299  11.253  1.00  0.00     0.035 C 
HETATM   10  C10 UNL     1       1.078   6.400  11.452  1.00  0.00    -0.069 C 
HETATM   11  C11 UNL     1       2.389   6.103  11.518  1.00  0.00     0.030 C 
HETATM   12  C12 UNL     1       3.411   7.177  11.654  1.00  0.00     0.032 C 
HETATM   13  N1  UNL     1       4.613   6.844  12.024  1.00  0.00    -0.271 N 
ATOM     14  H1  UNL     1       4.912   5.886  12.205  1.00  0.00     0.194 HD
HETATM   15  C22 UNL     1       2.954   8.585  11.330  1.00  0.00     0.060 C 
HETATM   16  C23 UNL     1       1.626   8.813  12.040  1.00  0.00     0.020 C 
HETATM   17  C24 UNL     1       0.511   7.817  11.601  1.00  0.00    -0.016 C 
HETATM   18  C25 UNL     1      -0.034   8.279  10.235  1.00  0.00     0.020 C 
HETATM   19  C26 UNL     1      -0.598   7.800  12.720  1.00  0.00     0.002 C 
HETATM   20  C27 UNL     1      -1.315   9.155  12.888  1.00  0.00     0.007 C 
HETATM   21  C28 UNL     1      -2.306   9.131  14.052  1.00  0.00     0.014 C 
HETATM   22  C29 UNL     1      -3.378   8.006  13.944  1.00  0.00     0.003 C 
HETATM   23  C30 UNL     1      -4.386   8.399  12.847  1.00  0.00     0.020 C 
ENDROOT
BRANCH   3  24
HETATM   24  O1  UNL     1      -4.392   8.950  15.991  1.00  0.00    -0.377 OA
HETATM   25  H2  UNL     1      -3.577   9.340  16.348  1.00  0.00     0.211 HD
ENDBRANCH   3  24
BRANCH  13  26
HETATM   26  O2  UNL     1       5.448   7.966  12.140  1.00  0.00    -0.271 OA
BRANCH  26  27
HETATM   27  C13 UNL     1       6.771   7.560  12.475  1.00  0.00     0.303 C 
BRANCH  27  28
HETATM   28  C14 UNL     1       7.556   8.615  13.246  1.00  0.00     0.244 C 
HETATM   29  O3  UNL     1       7.402   9.817  13.060  1.00  0.00    -0.271 OA
HETATM   30  N2  UNL     1       8.416   8.093  14.183  1.00  0.00    -0.346 N 
HETATM   31  H16 UNL     1       8.419   7.078  14.254  1.00  0.00     0.163 HD
BRANCH  30  32
HETATM   32  C15 UNL     1       9.310   8.902  15.016  1.00  0.00     0.180 C 
BRANCH  32  33
HETATM   33  C16 UNL     1      10.337   9.637  14.113  1.00  0.00     0.241 C 
HETATM   34  O4  UNL     1      10.288   9.622  12.886  1.00  0.00    -0.271 OA
HETATM   35  N3  UNL     1      11.384  10.241  14.793  1.00  0.00    -0.349 N 
HETATM   36  H18 UNL     1      11.192  10.450  15.773  1.00  0.00     0.163 HD
BRANCH  35  37
HETATM   37  C17 UNL     1      12.259  11.171  14.093  1.00  0.00     0.232 C 
BRANCH  37  38
HETATM   38  C18 UNL     1      13.520  10.497  13.576  1.00  0.00     0.158 C 
HETATM   39  O5  UNL     1      13.591   9.761  12.603  1.00  0.00    -0.649 OA
BRANCH  38  40
HETATM   40  O6  UNL     1      14.604  10.703  14.360  1.00  0.00    -0.775 OA
HETATM   41  H21 UNL     1      15.331  10.247  13.884  1.00  0.00     0.167 HD
ENDBRANCH  38  40
ENDBRANCH  37  38
ENDBRANCH  35  37
ENDBRANCH  32  33
BRANCH  32  42
HETATM   42  C19 UNL     1       8.505   9.910  15.875  1.00  0.00     0.009 C 
HETATM   43  C20 UNL     1       8.713  11.344  15.365  1.00  0.00     0.012 C 
HETATM   44  C21 UNL     1       8.904   9.876  17.358  1.00  0.00     0.012 C 
ENDBRANCH  32  42
ENDBRANCH  30  32
ENDBRANCH  27  28
ENDBRANCH  26  27
ENDBRANCH  13  26
TORSDOF 10
ENDMDL
