MODEL 1
REMARK minimizedAffinity -8.33613014
REMARK CNNscore 0.768864632
REMARK CNNaffinity 5.55440283
REMARK  11 active torsions:
REMARK  status: ('A' for Active; 'I' for Inactive)
REMARK    1  A    between atoms: C2_2  and  O1_3 
REMARK    2  A    between atoms: C2_2  and  C3_4 
REMARK    3  A    between atoms: C4_5  and  C5_6 
REMARK    4  A    between atoms: C5_6  and  O2_7 
REMARK    5  A    between atoms: C9_11  and  O3_12 
REMARK    6  A    between atoms: O3_12  and  C10_13 
REMARK    7  A    between atoms: C11_15  and  C12_16 
REMARK    8  A    between atoms: C12_16  and  O5_17 
REMARK    9  A    between atoms: C13_18  and  O6_19 
REMARK   10  A    between atoms: C14_20  and  O7_21 
REMARK   11  A    between atoms: C15_22  and  O8_23 
ROOT
HETATM    1  C5  UNL     1      -3.696   6.430  14.721  1.00  0.00     0.086 C 
HETATM    2  C6  UNL     1      -3.387   5.170  13.850  1.00  0.00     0.023 C 
HETATM    3  C7  UNL     1      -4.386   4.882  12.720  1.00  0.00     0.013 C 
HETATM    4  C8  UNL     1      -1.950   5.223  13.276  1.00  0.00     0.039 C 
HETATM    5  C9  UNL     1      -1.383   6.639  13.107  1.00  0.00     0.126 C 
HETATM    6  C16 UNL     1      -2.485   7.639  12.766  1.00  0.00     0.044 C 
HETATM    7  C17 UNL     1      -3.558   7.777  13.887  1.00  0.00    -0.010 C 
HETATM    8  C18 UNL     1      -3.127   8.957  14.799  1.00  0.00     0.018 C 
HETATM    9  C19 UNL     1      -4.886   8.204  13.219  1.00  0.00     0.018 C 
ENDROOT
BRANCH   5  10
HETATM   10  O3  UNL     1      -0.447   6.605  12.022  1.00  0.00    -0.353 OA
BRANCH  10  11
HETATM   11  C10 UNL     1       0.121   7.893  11.746  1.00  0.00     0.292 C 
HETATM   12  O4  UNL     1       0.781   7.869  10.475  1.00  0.00    -0.348 OA
HETATM   13  C11 UNL     1       2.188   7.557  10.512  1.00  0.00     0.179 C 
HETATM   14  C13 UNL     1       2.539   6.606  11.658  1.00  0.00     0.180 C 
HETATM   15  C14 UNL     1       2.232   7.289  13.005  1.00  0.00     0.183 C 
HETATM   16  C15 UNL     1       1.042   8.260  12.928  1.00  0.00     0.204 C 
BRANCH  13  17
HETATM   17  C12 UNL     1       2.554   6.967   9.143  1.00  0.00     0.198 C 
BRANCH  17  18
HETATM   18  O5  UNL     1       2.421   5.542   9.175  1.00  0.00    -0.398 OA
HETATM   19  H20 UNL     1       2.835   5.265  10.017  1.00  0.00     0.209 HD
ENDBRANCH  17  18
ENDBRANCH  13  17
BRANCH  14  20
HETATM   20  O6  UNL     1       3.912   6.211  11.631  1.00  0.00    -0.390 OA
HETATM   21  H22 UNL     1       4.068   5.699  12.448  1.00  0.00     0.210 HD
ENDBRANCH  14  20
BRANCH  15  22
HETATM   22  O7  UNL     1       1.995   6.269  13.991  1.00  0.00    -0.390 OA
HETATM   23  H24 UNL     1       1.172   5.812  13.730  1.00  0.00     0.210 HD
ENDBRANCH  15  22
BRANCH  16  24
HETATM   24  O8  UNL     1       1.511   9.608  12.787  1.00  0.00    -0.388 OA
HETATM   25  H26 UNL     1       1.970   9.844  13.613  1.00  0.00     0.210 HD
ENDBRANCH  16  24
ENDBRANCH  10  11
ENDBRANCH   5  10
BRANCH   1  26
HETATM   26  C4  UNL     1      -4.963   6.379  15.561  1.00  0.00     0.010 C 
HETATM   27  C3  UNL     1      -6.131   5.776  15.281  1.00  0.00     0.003 C 
BRANCH  27  28
HETATM   28  C2  UNL     1      -7.313   5.762  16.202  1.00  0.00     0.136 C 
HETATM   29  C1  UNL     1      -8.252   6.927  15.928  1.00  0.00     0.043 C 
BRANCH  28  30
HETATM   30  O1  UNL     1      -8.017   4.549  15.968  1.00  0.00    -0.392 OA
HETATM   31  H5  UNL     1      -7.404   3.826  16.189  1.00  0.00     0.210 HD
ENDBRANCH  28  30
ENDBRANCH  27  28
ENDBRANCH   1  26
BRANCH   1  32
HETATM   32  O2  UNL     1      -2.657   6.438  15.726  1.00  0.00    -0.385 OA
HETATM   33  H8  UNL     1      -2.801   5.662  16.297  1.00  0.00     0.211 HD
ENDBRANCH   1  32
TORSDOF 11
ENDMDL
