MODEL 1
REMARK minimizedAffinity -9.42758274
REMARK  8 active torsions:
REMARK  status: ('A' for Active; 'I' for Inactive)
REMARK    1  A    between atoms: C2_2  and  C3_3 
REMARK    2  A    between atoms: C2_2  and  C9_12 
REMARK    3  A    between atoms: C3_3  and  C4_4 
REMARK    4  A    between atoms: C4_4  and  C5_5 
REMARK    5  A    between atoms: C6_6  and  C7_7 
REMARK    6  A    between atoms: C6_6  and  C8_9 
REMARK    7  A    between atoms: C7_7  and  O1_8 
REMARK    8  A    between atoms: C8_9  and  O3_11 
ROOT
HETATM    1  C9  UNL     1      -1.299  50.518 -25.491  1.00  0.00    -0.002 C 
HETATM    2  C10 UNL     1      -0.141  51.507 -25.226  1.00  0.00     0.006 C 
HETATM    3  C11 UNL     1      -0.291  51.953 -23.760  1.00  0.00     0.006 C 
HETATM    4  C12 UNL     1      -1.442  51.108 -23.210  1.00  0.00    -0.001 C 
HETATM    5  C13 UNL     1      -2.156  51.605 -21.944  1.00  0.00    -0.000 C 
HETATM    6  C14 UNL     1      -1.114  51.685 -20.809  1.00  0.00     0.006 C 
HETATM    7  C15 UNL     1      -1.644  51.564 -19.389  1.00  0.00     0.007 C 
HETATM    8  C16 UNL     1      -2.530  50.331 -19.141  1.00  0.00     0.010 C 
HETATM    9  C17 UNL     1      -1.771  48.973 -18.914  1.00  0.00     0.018 C 
HETATM   10  C18 UNL     1      -0.913  49.051 -17.632  1.00  0.00     0.023 C 
HETATM   11  C19 UNL     1      -0.863  48.522 -20.067  1.00  0.00     0.023 C 
HETATM   12  C20 UNL     1      -2.819  47.857 -18.728  1.00  0.00     0.135 C 
HETATM   13  O4  UNL     1      -2.779  47.048 -17.799  1.00  0.00    -0.297 OA
HETATM   14  C21 UNL     1      -3.887  47.745 -19.789  1.00  0.00     0.080 C 
HETATM   15  C22 UNL     1      -4.611  49.070 -19.866  1.00  0.00     0.018 C 
HETATM   16  C23 UNL     1      -3.647  50.206 -20.186  1.00  0.00    -0.026 A 
HETATM   17  C24 UNL     1      -4.351  51.453 -20.648  1.00  0.00     0.021 A 
HETATM   18  C25 UNL     1      -3.410  50.749 -21.619  1.00  0.00    -0.028 A 
HETATM   19  C26 UNL     1      -4.158  50.127 -22.815  1.00  0.00     0.011 C 
HETATM   20  C27 UNL     1      -3.313  49.772 -24.040  1.00  0.00     0.011 C 
HETATM   21  C28 UNL     1      -2.365  50.911 -24.425  1.00  0.00    -0.036 C 
HETATM   22  C29 UNL     1      -3.160  52.173 -24.809  1.00  0.00     0.016 C 
ENDROOT
BRANCH   1  23
HETATM   23  C2  UNL     1      -1.751  50.354 -26.969  1.00  0.00    -0.014 C 
HETATM   24  C1  UNL     1      -1.426  51.651 -27.734  1.00  0.00     0.010 C 
BRANCH  23  25
HETATM   25  C3  UNL     1      -3.240  49.998 -27.174  1.00  0.00     0.008 C 
BRANCH  25  26
HETATM   26  C4  UNL     1      -3.475  48.504 -27.435  1.00  0.00     0.028 C 
BRANCH  26  27
HETATM   27  C5  UNL     1      -4.945  48.207 -27.594  1.00  0.00    -0.011 C 
HETATM   28  C6  UNL     1      -5.632  48.042 -28.744  1.00  0.00     0.035 C 
BRANCH  28  29
HETATM   29  C7  UNL     1      -7.094  47.716 -28.775  1.00  0.00     0.209 C 
BRANCH  29  30
HETATM   30  O1  UNL     1      -7.853  48.910 -28.935  1.00  0.00    -0.396 OA
HETATM   31  H12 UNL     1      -7.520  49.555 -28.289  1.00  0.00     0.209 HD
ENDBRANCH  29  30
ENDBRANCH  28  29
BRANCH  28  32
HETATM   32  C8  UNL     1      -4.961  48.192 -30.052  1.00  0.00     0.173 C 
HETATM   33  O2  UNL     1      -4.621  47.294 -30.801  1.00  0.00    -0.646 OA
BRANCH  32  34
HETATM   34  O3  UNL     1      -4.770  49.483 -30.368  1.00  0.00    -0.773 OA
HETATM   35  H13 UNL     1      -4.316  49.443 -31.236  1.00  0.00     0.167 HD
ENDBRANCH  32  34
ENDBRANCH  28  32
ENDBRANCH  26  27
ENDBRANCH  25  26
ENDBRANCH  23  25
ENDBRANCH   1  23
TORSDOF 8
ENDMDL
