MODEL 1
REMARK minimizedAffinity -8.42355537
REMARK  14 active torsions:
REMARK  status: ('A' for Active; 'I' for Inactive)
REMARK    1  A    between atoms: O1_2  and  C2_3 
REMARK    2  A    between atoms: C2_3  and  C3_4 
REMARK    3  A    between atoms: C2_3  and  C24_30 
REMARK    4  A    between atoms: C3_4  and  C5_6 
REMARK    5  A    between atoms: C6_8  and  C8_10 
REMARK    6  A    between atoms: C8_10  and  C9_11 
REMARK    7  A    between atoms: C9_11  and  O3_13 
REMARK    8  A    between atoms: C9_11  and  C11_14 
REMARK    9  A    between atoms: C12_15  and  C13_16 
REMARK   10  A    between atoms: C14_17  and  C16_19 
REMARK   11  A    between atoms: C17_21  and  C18_22 
REMARK   12  A    between atoms: C18_22  and  C19_23 
REMARK   13  A    between atoms: C19_23  and  O6_25 
REMARK   14  A    between atoms: C24_30  and  O7_32 
ROOT
HETATM    1  C9  UNL     1      -4.850   3.133  11.550  1.00  0.00     0.075 C 
HETATM    2  C10 UNL     1      -5.071   1.617  11.513  1.00  0.00     0.050 C 
ENDROOT
BRANCH   1   3
HETATM    3  C8  UNL     1      -5.309   3.775  12.884  1.00  0.00     0.082 C 
BRANCH   3   4
HETATM    4  C6  UNL     1      -6.811   3.902  13.059  1.00  0.00     0.087 A 
HETATM    5  C5  UNL     1      -7.426   5.299  13.077  1.00  0.00     0.163 A 
HETATM    6  O2  UNL     1      -7.183   4.571  14.282  1.00  0.00    -0.369 OA
HETATM    7  C7  UNL     1      -7.644   2.673  12.827  1.00  0.00     0.049 C 
BRANCH   5   8
HETATM    8  C3  UNL     1      -8.873   5.559  12.734  1.00  0.00     0.045 C 
HETATM    9  C4  UNL     1      -8.967   5.821  11.222  1.00  0.00     0.015 C 
BRANCH   8  10
HETATM   10  C2  UNL     1      -9.431   6.754  13.558  1.00  0.00     0.155 C 
BRANCH  10  11
HETATM   11  O1  UNL     1     -10.824   6.522  13.848  1.00  0.00    -0.388 OA
HETATM   12  C1  UNL     1     -11.686   7.484  13.259  1.00  0.00     0.202 C 
ENDBRANCH  10  11
BRANCH  10  13
HETATM   13  C24 UNL     1      -8.661   6.957  14.891  1.00  0.00     0.143 C 
HETATM   14  C25 UNL     1      -8.644   8.416  15.338  1.00  0.00     0.042 C 
BRANCH  13  15
HETATM   15  O7  UNL     1      -9.242   6.180  15.943  1.00  0.00    -0.393 OA
HETATM   16  H42 UNL     1      -8.674   6.281  16.725  1.00  0.00     0.210 HD
ENDBRANCH  13  15
ENDBRANCH  10  13
ENDBRANCH   8  10
ENDBRANCH   5   8
ENDBRANCH   3   4
ENDBRANCH   1   3
BRANCH   1  17
HETATM   17  O3  UNL     1      -5.617   3.693  10.475  1.00  0.00    -0.386 OA
HETATM   18  H18 UNL     1      -5.184   3.417   9.647  1.00  0.00     0.211 HD
ENDBRANCH   1  17
BRANCH   1  19
HETATM   19  C11 UNL     1      -3.418   3.558  11.279  1.00  0.00     0.010 C 
HETATM   20  C12 UNL     1      -2.698   4.485  11.935  1.00  0.00    -0.001 C 
BRANCH  20  21
HETATM   21  C13 UNL     1      -1.315   4.757  11.611  1.00  0.00     0.005 C 
HETATM   22  C14 UNL     1      -0.644   5.914  11.793  1.00  0.00    -0.055 C 
HETATM   23  C15 UNL     1      -1.241   7.183  12.343  1.00  0.00     0.046 C 
BRANCH  22  24
HETATM   24  C16 UNL     1       0.844   6.012  11.470  1.00  0.00     0.154 C 
HETATM   25  O4  UNL     1       0.959   6.453  10.106  1.00  0.00    -0.375 OA
HETATM   26  C17 UNL     1       2.310   6.431   9.623  1.00  0.00     0.132 C 
HETATM   27  C20 UNL     1       3.153   7.415  10.441  1.00  0.00     0.033 C 
HETATM   28  C21 UNL     1       3.081   7.076  11.926  1.00  0.00     0.009 C 
HETATM   29  C22 UNL     1       1.621   6.976  12.397  1.00  0.00     0.015 C 
HETATM   30  C23 UNL     1       1.575   6.565  13.867  1.00  0.00     0.012 C 
BRANCH  26  31
HETATM   31  C18 UNL     1       2.263   6.810   8.144  1.00  0.00     0.141 C 
BRANCH  31  32
HETATM   32  C19 UNL     1       2.216   8.296   7.949  1.00  0.00     0.141 C 
HETATM   33  O5  UNL     1       3.103   9.014   7.520  1.00  0.00    -0.650 OA
BRANCH  32  34
HETATM   34  O6  UNL     1       1.022   8.818   8.293  1.00  0.00    -0.776 OA
HETATM   35  H29 UNL     1       1.115   9.776   8.104  1.00  0.00     0.167 HD
ENDBRANCH  32  34
ENDBRANCH  31  32
ENDBRANCH  26  31
ENDBRANCH  22  24
ENDBRANCH  20  21
ENDBRANCH   1  19
TORSDOF 14
ENDMDL
