MODEL 1
REMARK minimizedAffinity -6.0606451
REMARK CNNscore 0.490268737
REMARK CNNaffinity 6.54726553
REMARK  12 active torsions:
REMARK  status: ('A' for Active; 'I' for Inactive)
REMARK    1  A    between atoms: C2_2  and  C3_3 
REMARK    2  A    between atoms: C3_3  and  O2_5 
REMARK    3  A    between atoms: C14_16  and  C15_17 
REMARK    4  A    between atoms: C15_17  and  C17_19 
REMARK    5  A    between atoms: C17_19  and  C18_20 
REMARK    6  A    between atoms: C18_20  and  C19_21 
REMARK    7  A    between atoms: C20_22  and  C22_24 
REMARK    8  A    between atoms: C22_24  and  O4_26 
REMARK    9  A    between atoms: C27_31  and  C28_32 
REMARK   10  A    between atoms: C28_32  and  C29_33 
REMARK   11  A    between atoms: C29_33  and  C30_34 
REMARK   12  A    between atoms: C30_34  and  O5_35 
ROOT
HETATM    1  C1  UNL     1      -1.403  49.353  -8.737  1.00  0.00     0.056 C 
HETATM    2  C2  UNL     1      -0.959  50.381  -9.737  1.00  0.00     0.014 C 
HETATM    3  C4  UNL     1      -1.077  51.725  -9.583  1.00  0.00    -0.062 C 
HETATM    4  C5  UNL     1      -1.717  52.334  -8.364  1.00  0.00     0.036 C 
HETATM    5  C6  UNL     1      -0.747  53.227  -7.596  1.00  0.00     0.010 C 
HETATM    6  C7  UNL     1       0.218  54.079  -8.461  1.00  0.00     0.003 C 
HETATM    7  C8  UNL     1      -0.219  54.181  -9.983  1.00  0.00    -0.032 C 
HETATM    8  C9  UNL     1      -1.430  55.159 -10.044  1.00  0.00     0.016 C 
HETATM    9  C10 UNL     1       0.892  54.851 -10.879  1.00  0.00     0.011 C 
HETATM   10  C11 UNL     1       2.361  54.554 -10.530  1.00  0.00     0.011 C 
HETATM   11  C12 UNL     1       2.638  54.759  -9.033  1.00  0.00    -0.032 C 
HETATM   12  C13 UNL     1       2.369  56.257  -8.678  1.00  0.00     0.016 C 
HETATM   13  C14 UNL     1       4.056  54.381  -8.497  1.00  0.00    -0.002 C 
HETATM   14  C23 UNL     1       3.774  54.122  -6.981  1.00  0.00     0.006 C 
HETATM   15  C24 UNL     1       2.253  53.932  -6.814  1.00  0.00     0.011 C 
HETATM   16  C25 UNL     1       1.730  53.732  -8.248  1.00  0.00    -0.032 C 
HETATM   17  C26 UNL     1       2.018  52.232  -8.584  1.00  0.00     0.016 C 
HETATM   18  C27 UNL     1      -0.580  52.757 -10.603  1.00  0.00     0.024 C 
ENDROOT
BRANCH  13  19
HETATM   19  C15 UNL     1       5.266  55.348  -8.700  1.00  0.00    -0.014 C 
HETATM   20  C16 UNL     1       6.434  54.671  -9.425  1.00  0.00     0.010 C 
BRANCH  19  21
HETATM   21  C17 UNL     1       5.741  55.893  -7.322  1.00  0.00     0.008 C 
BRANCH  21  22
HETATM   22  C18 UNL     1       5.443  57.374  -7.039  1.00  0.00     0.028 C 
BRANCH  22  23
HETATM   23  C19 UNL     1       5.239  57.663  -5.578  1.00  0.00    -0.013 C 
HETATM   24  C20 UNL     1       6.067  58.315  -4.736  1.00  0.00     0.008 C 
HETATM   25  C21 UNL     1       7.398  58.910  -5.081  1.00  0.00     0.055 C 
BRANCH  24  26
HETATM   26  C22 UNL     1       5.598  58.457  -3.332  1.00  0.00     0.171 C 
HETATM   27  O3  UNL     1       4.484  58.783  -2.963  1.00  0.00    -0.646 OA
BRANCH  26  28
HETATM   28  O4  UNL     1       6.564  58.182  -2.439  1.00  0.00    -0.773 OA
HETATM   29  H33 UNL     1       6.118  58.315  -1.577  1.00  0.00     0.167 HD
ENDBRANCH  26  28
ENDBRANCH  24  26
ENDBRANCH  22  23
ENDBRANCH  21  22
ENDBRANCH  19  21
ENDBRANCH  13  19
BRANCH  18  30
HETATM   30  C28 UNL     1      -1.453  52.793 -11.895  1.00  0.00     0.012 C 
BRANCH  30  31
HETATM   31  C29 UNL     1      -2.900  52.289 -11.768  1.00  0.00     0.027 C 
BRANCH  31  32
HETATM   32  C30 UNL     1      -3.905  53.437 -11.803  1.00  0.00     0.164 C 
BRANCH  32  33
HETATM   33  O5  UNL     1      -4.233  53.759 -13.147  1.00  0.00    -0.401 OA
HETATM   34  H48 UNL     1      -4.870  54.492 -13.117  1.00  0.00     0.209 HD
ENDBRANCH  32  33
ENDBRANCH  31  32
ENDBRANCH  30  31
ENDBRANCH  18  30
BRANCH   2  35
HETATM   35  C3  UNL     1      -0.344  49.802 -10.954  1.00  0.00     0.171 C 
HETATM   36  O1  UNL     1      -0.912  49.414 -11.957  1.00  0.00    -0.646 OA
BRANCH  35  37
HETATM   37  O2  UNL     1       0.994  49.753 -10.826  1.00  0.00    -0.773 OA
HETATM   38  H4  UNL     1       1.288  49.309 -11.649  1.00  0.00     0.167 HD
ENDBRANCH  35  37
ENDBRANCH   2  35
TORSDOF 12
ENDMDL
