MODEL 1
REMARK minimizedAffinity -7.40582752
REMARK CNNscore 0.611578107
REMARK CNNaffinity 6.05847597
REMARK  4 active torsions:
REMARK  status: ('A' for Active; 'I' for Inactive)
REMARK    1  A    between atoms: C4_4  and  O1_5 
REMARK    2  A    between atoms: C5_6  and  O2_7 
REMARK    3  A    between atoms: C8_11  and  C9_12 
REMARK    4  A    between atoms: C22_26  and  C23_27 
ROOT
HETATM    1  C1  UNL     1      14.408 -13.585   2.300  1.00  0.00     0.040 C 
HETATM    2  C2  UNL     1      13.065 -13.044   2.772  1.00  0.00     0.123 C 
HETATM    3  C3  UNL     1      12.322 -12.360   1.629  1.00  0.00     0.069 C 
HETATM    4  C4  UNL     1      11.005 -11.800   2.145  1.00  0.00     0.188 C 
HETATM    5  C5  UNL     1      11.214 -10.857   3.350  1.00  0.00     0.240 C 
HETATM    6  O3  UNL     1      11.822  -9.643   2.859  1.00  0.00    -0.341 OA
HETATM    7  C6  UNL     1      12.163  -8.774   3.958  1.00  0.00     0.156 C 
HETATM    8  C7  UNL     1      12.814  -7.511   3.385  1.00  0.00     0.056 C 
HETATM    9  C8  UNL     1      13.339  -6.521   4.461  1.00  0.00     0.043 C 
HETATM   10  C10 UNL     1      14.111  -7.270   5.551  1.00  0.00    -0.065 C 
HETATM   11  C11 UNL     1      15.294  -6.844   6.034  1.00  0.00    -0.022 C 
HETATM   12  C12 UNL     1      16.000  -5.599   5.591  1.00  0.00     0.035 C 
HETATM   13  C13 UNL     1      15.095  -4.651   4.802  1.00  0.00     0.030 C 
HETATM   14  C14 UNL     1      14.228  -5.427   3.763  1.00  0.00     0.012 C 
HETATM   15  C15 UNL     1      13.424  -4.481   2.809  1.00  0.00     0.007 C 
HETATM   16  C16 UNL     1      14.223  -3.282   2.235  1.00  0.00     0.016 C 
HETATM   17  C17 UNL     1      14.929  -2.547   3.377  1.00  0.00     0.023 C 
HETATM   18  C18 UNL     1      13.902  -1.767   4.229  1.00  0.00     0.022 C 
HETATM   19  C19 UNL     1      15.883  -3.611   4.046  1.00  0.00     0.077 C 
HETATM   20  C20 UNL     1      17.000  -4.039   3.086  1.00  0.00     0.042 C 
HETATM   21  C21 UNL     1      17.338  -2.662   2.529  1.00  0.00     0.047 C 
HETATM   22  C22 UNL     1      16.359  -1.851   3.375  1.00  0.00     0.098 C 
HETATM   23  O7  UNL     1      16.470  -2.458   4.784  1.00  0.00    -0.362 OA
HETATM   24  C27 UNL     1      13.487  -8.549   6.070  1.00  0.00     0.069 C 
HETATM   25  C28 UNL     1      13.118  -9.489   4.924  1.00  0.00     0.158 C 
HETATM   26  O8  UNL     1      12.502 -10.667   5.464  1.00  0.00    -0.347 OA
HETATM   27  C29 UNL     1      12.128 -11.569   4.404  1.00  0.00     0.325 C 
HETATM   28  O9  UNL     1      13.321 -12.112   3.822  1.00  0.00    -0.351 OA
ENDROOT
BRANCH  22  29
HETATM   29  C23 UNL     1      16.454  -0.399   3.282  1.00  0.00    -0.015 A 
HETATM   30  C24 UNL     1      16.768   0.406   4.290  1.00  0.00     0.090 A 
HETATM   31  C25 UNL     1      16.717   1.764   3.750  1.00  0.00     0.283 A 
HETATM   32  O5  UNL     1      16.940   2.772   4.393  1.00  0.00    -0.260 OA
HETATM   33  O6  UNL     1      16.380   1.714   2.431  1.00  0.00    -0.314 OA
HETATM   34  C26 UNL     1      16.190   0.351   2.044  1.00  0.00     0.216 A 
ENDBRANCH  22  29
BRANCH   9  35
HETATM   35  C9  UNL     1      12.170  -5.839   5.188  1.00  0.00     0.245 C 
HETATM   36  O4  UNL     1      12.075  -5.737   6.407  1.00  0.00    -0.306 OA
ENDBRANCH   9  35
BRANCH   5  37
HETATM   37  O2  UNL     1       9.931 -10.532   3.887  1.00  0.00    -0.360 OA
HETATM   38  H9  UNL     1       9.360 -10.384   3.110  1.00  0.00     0.213 HD
ENDBRANCH   5  37
BRANCH   4  39
HETATM   39  O1  UNL     1      10.333 -11.093   1.090  1.00  0.00    -0.390 OA
HETATM   40  H8  UNL     1      10.811 -10.243   0.998  1.00  0.00     0.210 HD
ENDBRANCH   4  39
TORSDOF 4
ENDMDL
