MODEL 1
REMARK minimizedAffinity -7.50497246
REMARK  4 active torsions:
REMARK  status: ('A' for Active; 'I' for Inactive)
REMARK    1  A    between atoms: C2_2  and  C4_4 
REMARK    2  A    between atoms: C13_13  and  C15_15 
REMARK    3  A    between atoms: C15_15  and  O1_16 
REMARK    4  A    between atoms: C18_19  and  O2_20 
ROOT
HETATM    1  C4  UNL     1       3.082   7.112   8.971  1.00  0.00     0.021 C 
HETATM    2  C5  UNL     1       2.375   5.827   9.449  1.00  0.00     0.008 C 
HETATM    3  C6  UNL     1       1.079   6.141  10.196  1.00  0.00     0.009 C 
HETATM    4  C7  UNL     1       1.290   6.954  11.501  1.00  0.00     0.034 C 
HETATM    5  C8  UNL     1      -0.044   7.593  12.077  1.00  0.00    -0.033 C 
HETATM    6  C9  UNL     1      -0.634   8.613  11.059  1.00  0.00     0.016 C 
HETATM    7  C10 UNL     1      -1.133   6.501  12.241  1.00  0.00     0.010 C 
HETATM    8  C11 UNL     1      -0.890   5.520  13.376  1.00  0.00     0.002 C 
HETATM    9  C12 UNL     1      -0.204   6.117  14.598  1.00  0.00     0.012 C 
HETATM   10  C13 UNL     1      -0.351   7.647  14.750  1.00  0.00    -0.018 C 
HETATM   11  C14 UNL     1      -1.838   8.038  14.953  1.00  0.00     0.018 C 
HETATM   12  C16 UNL     1       0.226   8.358  13.455  1.00  0.00     0.007 C 
HETATM   13  C17 UNL     1       1.718   8.743  13.615  1.00  0.00     0.041 C 
HETATM   14  C18 UNL     1       2.364   9.165  12.307  1.00  0.00     0.156 C 
HETATM   15  C19 UNL     1       2.409   7.987  11.366  1.00  0.00     0.118 A 
HETATM   16  O3  UNL     1       3.717   7.351  11.355  1.00  0.00    -0.366 OA
HETATM   17  C20 UNL     1       3.321   8.020  10.153  1.00  0.00     0.165 A 
ENDROOT
BRANCH  10  18
HETATM   18  C15 UNL     1       0.393   8.076  16.055  1.00  0.00     0.173 C 
BRANCH  18  19
HETATM   19  O1  UNL     1       1.221   7.036  16.572  1.00  0.00    -0.400 OA
HETATM   20  H28 UNL     1       0.645   6.393  17.017  1.00  0.00     0.209 HD
ENDBRANCH  18  19
ENDBRANCH  10  18
BRANCH  14  21
HETATM   21  O2  UNL     1       3.681   9.642  12.595  1.00  0.00    -0.392 OA
HETATM   22  H33 UNL     1       4.255   8.850  12.597  1.00  0.00     0.210 HD
ENDBRANCH  14  21
BRANCH   1  23
HETATM   23  C2  UNL     1       2.321   7.877   7.841  1.00  0.00    -0.016 C 
HETATM   24  C1  UNL     1       0.997   8.485   8.317  1.00  0.00     0.010 C 
HETATM   25  C3  UNL     1       2.023   6.960   6.644  1.00  0.00     0.010 C 
ENDBRANCH   1  23
TORSDOF 4
ENDMDL
