MODEL 1
REMARK minimizedAffinity -8.1442461
REMARK CNNscore 0.606663465
REMARK CNNaffinity 7.30010843
REMARK  12 active torsions:
REMARK  status: ('A' for Active; 'I' for Inactive)
REMARK    1  A    between atoms: C12_13  and  O2_14 
REMARK    2  A    between atoms: C19_21  and  O3_22 
REMARK    3  A    between atoms: C19_21  and  C20_23 
REMARK    4  A    between atoms: C20_23  and  C21_25 
REMARK    5  A    between atoms: C21_25  and  O5_26 
REMARK    6  A    between atoms: O5_26  and  C22_27 
REMARK    7  A    between atoms: C22_27  and  C23_29 
REMARK    8  A    between atoms: C23_29  and  C24_30 
REMARK    9  A    between atoms: C24_30  and  C25_31 
REMARK       I    between atoms: C25_31  and  N1_33 
REMARK   10  A    between atoms: N1_33  and  C26_34 
REMARK   11  A    between atoms: C26_34  and  C27_35 
REMARK   12  A    between atoms: C27_35  and  C28_36 
ROOT
HETATM    1  C1  UNL     1       2.847   5.612  11.238  1.00  0.00     0.020 C 
HETATM    2  C2  UNL     1       2.131   6.752  10.467  1.00  0.00    -0.014 C 
HETATM    3  C3  UNL     1       2.133   6.318   8.969  1.00  0.00     0.022 C 
HETATM    4  C4  UNL     1       1.930   7.457   7.981  1.00  0.00     0.084 C 
HETATM    5  C5  UNL     1       2.942   8.547   8.219  1.00  0.00     0.149 C 
HETATM    6  O1  UNL     1       3.369   9.264   7.318  1.00  0.00    -0.293 OA
HETATM    7  C6  UNL     1       3.343   8.825   9.616  1.00  0.00     0.053 C 
HETATM    8  C7  UNL     1       2.945   8.041  10.632  1.00  0.00    -0.068 C 
HETATM    9  C8  UNL     1       3.177   8.478  12.057  1.00  0.00     0.035 C 
HETATM   10  C9  UNL     1       1.934   8.248  12.925  1.00  0.00     0.010 C 
HETATM   11  C10 UNL     1       0.632   8.183  12.104  1.00  0.00    -0.002 C 
HETATM   12  C11 UNL     1       0.669   7.068  10.995  1.00  0.00     0.031 C 
HETATM   13  C12 UNL     1      -0.255   5.870  11.334  1.00  0.00     0.124 C 
HETATM   14  C13 UNL     1      -0.355   5.594  12.836  1.00  0.00     0.045 C 
HETATM   15  C14 UNL     1      -1.000   6.754  13.629  1.00  0.00     0.001 C 
HETATM   16  C15 UNL     1      -0.486   6.691  15.087  1.00  0.00     0.019 C 
HETATM   17  C16 UNL     1      -0.602   8.145  13.030  1.00  0.00     0.002 C 
HETATM   18  C17 UNL     1      -1.870   8.675  12.352  1.00  0.00     0.009 C 
HETATM   19  C18 UNL     1      -2.969   8.201  13.286  1.00  0.00     0.047 C 
HETATM   20  C19 UNL     1      -2.587   6.739  13.569  1.00  0.00     0.128 C 
ENDROOT
BRANCH  20  21
HETATM   21  O3  UNL     1      -3.047   5.956  12.464  1.00  0.00    -0.381 OA
HETATM   22  H27 UNL     1      -3.956   6.231  12.239  1.00  0.00     0.211 HD
ENDBRANCH  20  21
BRANCH  20  23
HETATM   23  C20 UNL     1      -3.281   6.218  14.849  1.00  0.00     0.185 C 
HETATM   24  O4  UNL     1      -2.771   5.332  15.547  1.00  0.00    -0.292 OA
BRANCH  23  25
HETATM   25  C21 UNL     1      -4.633   6.835  15.192  1.00  0.00     0.260 C 
BRANCH  25  26
HETATM   26  O5  UNL     1      -5.553   6.552  14.137  1.00  0.00    -0.314 OA
BRANCH  26  27
HETATM   27  C22 UNL     1      -6.408   5.534  14.407  1.00  0.00     0.259 C 
HETATM   28  O6  UNL     1      -7.000   5.393  15.471  1.00  0.00    -0.265 OA
BRANCH  27  29
HETATM   29  C23 UNL     1      -6.502   4.542  13.268  1.00  0.00     0.120 C 
BRANCH  29  30
HETATM   30  C24 UNL     1      -7.919   4.253  12.781  1.00  0.00     0.112 C 
BRANCH  30  31
HETATM   31  C25 UNL     1      -8.765   5.509  12.699  1.00  0.00     0.218 C 
HETATM   32  O7  UNL     1      -8.882   6.179  11.679  1.00  0.00    -0.274 OA
HETATM   33  N1  UNL     1      -9.391   5.817  13.886  1.00  0.00    -0.361 N 
HETATM   34  H34 UNL     1      -9.421   5.121  14.621  1.00  0.00     0.162 HD
BRANCH  33  35
HETATM   35  C26 UNL     1     -10.333   6.919  13.977  1.00  0.00     0.128 C 
BRANCH  35  36
HETATM   36  C27 UNL     1      -9.807   8.077  14.833  1.00  0.00     0.078 C 
BRANCH  36  37
HETATM   37  C28 UNL     1     -10.478   9.369  14.507  1.00  0.00     0.027 A 
HETATM   38  C29 UNL     1     -11.528   9.677  13.667  1.00  0.00     0.114 A 
HETATM   39  N2  UNL     1     -11.786  11.022  13.682  1.00  0.00    -0.360 N 
HETATM   40  C30 UNL     1     -10.925  11.532  14.531  1.00  0.00     0.180 A 
ATOM     41  H2  UNL     1     -12.497  11.521  13.147  1.00  0.00     0.166 HD
HETATM   42  N3  UNL     1     -10.110  10.571  15.058  1.00  0.00    -0.355 N 
HETATM   43  H41 UNL     1      -9.374  10.735  15.741  1.00  0.00     0.166 HD
ENDBRANCH  36  37
ENDBRANCH  35  36
ENDBRANCH  33  35
ENDBRANCH  30  31
ENDBRANCH  29  30
ENDBRANCH  27  29
ENDBRANCH  26  27
ENDBRANCH  25  26
ENDBRANCH  23  25
ENDBRANCH  20  23
BRANCH  13  44
HETATM   44  O2  UNL     1       0.122   4.679  10.659  1.00  0.00    -0.395 OA
HETATM   45  H16 UNL     1      -0.569   4.015  10.828  1.00  0.00     0.210 HD
ENDBRANCH  13  44
TORSDOF 12
ENDMDL
