MODEL 1
REMARK minimizedAffinity -8.76243401
REMARK  6 active torsions:
REMARK  status: ('A' for Active; 'I' for Inactive)
REMARK    1  A    between atoms: C2_2  and  C4_4 
REMARK    2  A    between atoms: C11_11  and  C12_12 
REMARK    3  A    between atoms: C12_12  and  O2_14 
REMARK    4  A    between atoms: C21_23  and  O3_24 
REMARK    5  A    between atoms: C22_25  and  C24_27 
REMARK    6  A    between atoms: C24_27  and  O4_28 
ROOT
HETATM    1  C4  UNL     1      -5.329   4.490  13.142  1.00  0.00     0.018 C 
HETATM    2  C5  UNL     1      -6.873   4.557  12.975  1.00  0.00     0.010 C 
HETATM    3  C6  UNL     1      -7.311   5.962  13.420  1.00  0.00     0.010 C 
HETATM    4  C7  UNL     1      -6.152   6.463  14.290  1.00  0.00    -0.039 C 
HETATM    5  C8  UNL     1      -6.303   5.838  15.702  1.00  0.00     0.015 C 
HETATM    6  C9  UNL     1      -6.057   7.989  14.409  1.00  0.00     0.011 C 
HETATM    7  C10 UNL     1      -4.717   8.424  15.040  1.00  0.00     0.022 C 
HETATM    8  C11 UNL     1      -3.440   7.856  14.313  1.00  0.00     0.057 C 
HETATM    9  C13 UNL     1      -3.613   6.285  14.175  1.00  0.00     0.011 C 
HETATM   10  C14 UNL     1      -2.385   5.589  13.578  1.00  0.00     0.007 C 
HETATM   11  C15 UNL     1      -1.086   5.955  14.294  1.00  0.00     0.006 C 
HETATM   12  C16 UNL     1      -0.860   7.480  14.372  1.00  0.00     0.003 C 
HETATM   13  C17 UNL     1       0.610   7.910  14.826  1.00  0.00    -0.035 C 
HETATM   14  C18 UNL     1       0.983   7.329  16.211  1.00  0.00     0.016 C 
HETATM   15  C19 UNL     1       1.638   7.350  13.793  1.00  0.00     0.012 C 
HETATM   16  C20 UNL     1       3.046   7.922  13.931  1.00  0.00     0.033 C 
HETATM   17  C21 UNL     1       3.070   9.443  13.880  1.00  0.00     0.128 C 
HETATM   18  C22 UNL     1       2.112  10.128  14.902  1.00  0.00     0.007 C 
HETATM   19  C23 UNL     1       2.683  10.049  16.335  1.00  0.00     0.020 C 
HETATM   20  C25 UNL     1       0.681   9.483  14.758  1.00  0.00     0.007 C 
HETATM   21  C26 UNL     1      -0.412  10.124  15.636  1.00  0.00     0.007 C 
HETATM   22  C27 UNL     1      -1.806   9.726  15.146  1.00  0.00     0.011 C 
HETATM   23  C28 UNL     1      -2.068   8.194  15.107  1.00  0.00    -0.022 C 
HETATM   24  C29 UNL     1      -2.197   7.728  16.586  1.00  0.00     0.017 C 
HETATM   25  C30 UNL     1      -4.946   5.955  13.460  1.00  0.00     0.007 C 
ENDROOT
BRANCH   8  26
HETATM   26  C12 UNL     1      -3.387   8.497  12.895  1.00  0.00     0.149 C 
HETATM   27  O1  UNL     1      -2.401   8.693  12.205  1.00  0.00    -0.649 OA
BRANCH  26  28
HETATM   28  O2  UNL     1      -4.582   8.898  12.417  1.00  0.00    -0.776 OA
HETATM   29  H18 UNL     1      -4.363   9.270  11.537  1.00  0.00     0.167 HD
ENDBRANCH  26  28
ENDBRANCH   8  26
BRANCH   1  30
HETATM   30  C2  UNL     1      -4.703   3.782  11.950  1.00  0.00    -0.089 C 
HETATM   31  C1  UNL     1      -3.452   3.980  11.503  1.00  0.00     0.014 C 
HETATM   32  C3  UNL     1      -5.611   2.805  11.247  1.00  0.00     0.043 C 
ENDBRANCH   1  30
BRANCH  18  33
HETATM   33  C24 UNL     1       2.029  11.647  14.537  1.00  0.00     0.176 C 
BRANCH  33  34
HETATM   34  O4  UNL     1       0.677  12.075  14.369  1.00  0.00    -0.400 OA
HETATM   35  H39 UNL     1       0.710  13.004  14.079  1.00  0.00     0.209 HD
ENDBRANCH  33  34
ENDBRANCH  18  33
BRANCH  17  36
HETATM   36  O3  UNL     1       4.425   9.854  14.063  1.00  0.00    -0.395 OA
HETATM   37  H33 UNL     1       4.397  10.830  14.160  1.00  0.00     0.210 HD
ENDBRANCH  17  36
TORSDOF 6
ENDMDL
