MODEL 1
REMARK minimizedAffinity -8.68254852
REMARK CNNscore 0.649489105
REMARK CNNaffinity 6.96263885
REMARK  4 active torsions:
REMARK  status: ('A' for Active; 'I' for Inactive)
REMARK    1  A    between atoms: C2_2  and  C3_3 
REMARK    2  A    between atoms: C2_2  and  C9_9 
REMARK    3  A    between atoms: C4_4  and  C5_5 
REMARK    4  A    between atoms: C23_23  and  O1_24 
ROOT
HETATM    1  C9  UNL     1       0.148   6.960  12.224  1.00  0.00     0.001 C 
HETATM    2  C10 UNL     1       0.452   5.541  12.795  1.00  0.00     0.006 C 
HETATM    3  C11 UNL     1      -0.825   5.048  13.490  1.00  0.00     0.009 C 
HETATM    4  C12 UNL     1      -1.863   6.105  13.135  1.00  0.00     0.036 C 
HETATM    5  C13 UNL     1      -1.066   7.434  13.088  1.00  0.00    -0.033 C 
HETATM    6  C14 UNL     1      -0.587   7.948  14.464  1.00  0.00     0.016 C 
HETATM    7  C15 UNL     1      -1.988   8.478  12.425  1.00  0.00     0.010 C 
HETATM    8  C16 UNL     1      -3.329   8.625  13.167  1.00  0.00     0.010 C 
HETATM    9  C17 UNL     1      -4.083   7.291  13.336  1.00  0.00     0.039 C 
HETATM   10  C18 UNL     1      -3.190   6.135  13.902  1.00  0.00     0.123 C 
HETATM   11  C19 UNL     1      -3.119   6.132  15.408  1.00  0.00     0.014 C 
HETATM   12  C20 UNL     1      -4.319   6.042  15.998  1.00  0.00     0.014 C 
HETATM   13  C21 UNL     1      -5.482   6.056  15.026  1.00  0.00     0.124 C 
HETATM   14  C22 UNL     1      -6.823   5.834  15.739  1.00  0.00     0.078 C 
HETATM   15  C23 UNL     1      -8.043   6.112  14.853  1.00  0.00     0.121 C 
HETATM   16  C24 UNL     1      -7.717   6.346  13.383  1.00  0.00     0.033 C 
HETATM   17  C25 UNL     1      -6.658   7.433  13.175  1.00  0.00     0.015 C 
HETATM   18  C26 UNL     1      -5.442   7.361  14.157  1.00  0.00     0.001 C 
HETATM   19  C27 UNL     1      -5.519   8.618  15.067  1.00  0.00     0.019 C 
HETATM   20  O2  UNL     1      -5.286   4.933  14.119  1.00  0.00    -0.223 OA
HETATM   21  O3  UNL     1      -3.891   4.900  13.585  1.00  0.00    -0.224 OA
ENDROOT
BRANCH   1  22
HETATM   22  C2  UNL     1       1.422   7.847  12.141  1.00  0.00     0.008 C 
HETATM   23  C1  UNL     1       1.247   9.217  12.805  1.00  0.00     0.014 C 
BRANCH  22  24
HETATM   24  C3  UNL     1       1.887   7.967  10.698  1.00  0.00    -0.026 C 
HETATM   25  C4  UNL     1       2.341   6.981   9.906  1.00  0.00    -0.025 C 
BRANCH  25  26
HETATM   26  C5  UNL     1       2.771   7.137   8.513  1.00  0.00     0.012 A 
HETATM   27  C6  UNL     1       2.920   8.535   7.965  1.00  0.00     0.013 A 
HETATM   28  C7  UNL     1       1.793   7.661   7.489  1.00  0.00    -0.010 A 
HETATM   29  C8  UNL     1       1.801   7.115   6.101  1.00  0.00     0.010 C 
ENDBRANCH  25  26
ENDBRANCH  22  24
ENDBRANCH   1  22
BRANCH  15  30
HETATM   30  O1  UNL     1      -8.715   7.265  15.369  1.00  0.00    -0.395 OA
HETATM   31  H33 UNL     1      -9.534   7.379  14.856  1.00  0.00     0.210 HD
ENDBRANCH  15  30
TORSDOF 4
ENDMDL
