MODEL 1
REMARK minimizedAffinity -7.76978827
REMARK CNNscore 0.765820205
REMARK CNNaffinity 6.4829812
REMARK  6 active torsions:
REMARK  status: ('A' for Active; 'I' for Inactive)
REMARK    1  A    between atoms: C4_4  and  C5_5 
REMARK    2  A    between atoms: C5_5  and  C6_6 
REMARK    3  A    between atoms: C6_6  and  C7_7 
REMARK    4  A    between atoms: C7_7  and  C9_9 
REMARK    5  A    between atoms: C17_17  and  O1_18 
REMARK    6  A    between atoms: C21_22  and  O2_23 
ROOT
HETATM    1  C9  UNL     1     -14.541  45.960 -27.175  1.00  0.00    -0.002 C 
HETATM    2  C10 UNL     1     -14.122  46.407 -25.739  1.00  0.00     0.006 C 
HETATM    3  C11 UNL     1     -12.611  46.706 -25.765  1.00  0.00     0.011 C 
HETATM    4  C12 UNL     1     -12.248  46.765 -27.259  1.00  0.00    -0.032 C 
HETATM    5  C13 UNL     1     -12.634  48.206 -27.731  1.00  0.00     0.016 C 
HETATM    6  C14 UNL     1     -10.754  46.460 -27.590  1.00  0.00     0.003 C 
HETATM    7  C15 UNL     1      -9.776  47.416 -26.880  1.00  0.00     0.009 C 
HETATM    8  C16 UNL     1      -8.363  47.293 -27.435  1.00  0.00     0.039 C 
HETATM    9  C17 UNL     1      -8.299  47.849 -28.872  1.00  0.00     0.071 C 
HETATM   10  C18 UNL     1      -9.579  47.459 -29.703  1.00  0.00     0.029 C 
HETATM   11  C19 UNL     1      -9.294  47.389 -31.222  1.00  0.00     0.011 C 
HETATM   12  C20 UNL     1      -8.304  48.454 -31.673  1.00  0.00     0.033 C 
HETATM   13  C21 UNL     1      -6.941  48.359 -30.980  1.00  0.00     0.129 C 
HETATM   14  C22 UNL     1      -6.929  47.597 -29.611  1.00  0.00     0.010 C 
HETATM   15  C23 UNL     1      -6.605  46.098 -29.802  1.00  0.00     0.020 C 
HETATM   16  C24 UNL     1      -5.737  48.163 -28.787  1.00  0.00     0.020 C 
HETATM   17  C25 UNL     1     -10.474  46.265 -29.143  1.00  0.00    -0.033 C 
HETATM   18  C26 UNL     1      -9.759  44.904 -29.355  1.00  0.00     0.016 C 
HETATM   19  C27 UNL     1     -11.795  46.191 -29.995  1.00  0.00     0.011 C 
HETATM   20  C28 UNL     1     -13.094  45.640 -29.369  1.00  0.00     0.011 C 
HETATM   21  C29 UNL     1     -13.157  45.617 -27.833  1.00  0.00    -0.032 C 
HETATM   22  C30 UNL     1     -12.761  44.183 -27.357  1.00  0.00     0.016 C 
ENDROOT
BRANCH   1  23
HETATM   23  C7  UNL     1     -15.677  44.894 -27.146  1.00  0.00    -0.014 C 
HETATM   24  C8  UNL     1     -16.806  45.314 -26.187  1.00  0.00     0.010 C 
BRANCH  23  25
HETATM   25  C6  UNL     1     -16.268  44.545 -28.531  1.00  0.00     0.008 C 
BRANCH  25  26
HETATM   26  C5  UNL     1     -16.856  43.135 -28.661  1.00  0.00     0.028 C 
BRANCH  26  27
HETATM   27  C4  UNL     1     -17.995  43.122 -29.644  1.00  0.00    -0.025 C 
HETATM   28  C2  UNL     1     -19.315  43.176 -29.381  1.00  0.00    -0.091 C 
HETATM   29  C1  UNL     1     -19.923  43.226 -28.006  1.00  0.00     0.042 C 
HETATM   30  C3  UNL     1     -20.322  43.183 -30.502  1.00  0.00     0.042 C 
ENDBRANCH  26  27
ENDBRANCH  25  26
ENDBRANCH  23  25
ENDBRANCH   1  23
BRANCH   9  31
HETATM   31  O1  UNL     1      -8.403  49.298 -28.738  1.00  0.00    -0.389 OA
HETATM   32  H29 UNL     1      -7.901  49.584 -27.957  1.00  0.00     0.210 HD
ENDBRANCH   9  31
BRANCH  13  33
HETATM   33  O2  UNL     1      -6.015  47.777 -31.904  1.00  0.00    -0.395 OA
HETATM   34  H36 UNL     1      -5.119  47.953 -31.569  1.00  0.00     0.210 HD
ENDBRANCH  13  33
TORSDOF 6
ENDMDL
