MODEL 1
REMARK minimizedAffinity -8.01667976
REMARK  8 active torsions:
REMARK  status: ('A' for Active; 'I' for Inactive)
REMARK    1  A    between atoms: C2_2  and  O2_4 
REMARK    2  A    between atoms: O2_4  and  C3_5 
REMARK    3  A    between atoms: C12_15  and  C13_16 
REMARK    4  A    between atoms: C13_16  and  O5_18 
REMARK    5  A    between atoms: O5_18  and  C14_19 
REMARK    6  A    between atoms: C14_19  and  C15_20 
REMARK    7  A    between atoms: C15_20  and  N1_21 
REMARK    8  A    between atoms: C25_31  and  O6_32 
ROOT
HETATM    1  C3  UNL     1      -5.898   6.521  13.979  1.00  0.00     0.097 C 
HETATM    2  C4  UNL     1      -6.997   6.394  12.896  1.00  0.00     0.050 C 
HETATM    3  C5  UNL     1      -4.506   6.238  13.302  1.00  0.00     0.038 C 
HETATM    4  C6  UNL     1      -4.321   4.759  12.895  1.00  0.00     0.087 C 
HETATM    5  C7  UNL     1      -2.994   4.582  12.182  1.00  0.00     0.132 C 
HETATM    6  O3  UNL     1      -2.938   4.157  11.032  1.00  0.00    -0.298 OA
HETATM    7  C8  UNL     1      -1.785   4.985  13.009  1.00  0.00     0.068 C 
HETATM    8  C9  UNL     1      -0.364   4.625  12.496  1.00  0.00     0.022 C 
HETATM    9  C10 UNL     1      -0.275   3.251  11.821  1.00  0.00     0.015 C 
HETATM   10  C11 UNL     1       0.313   5.807  11.799  1.00  0.00    -0.070 C 
HETATM   11  C12 UNL     1       0.780   5.733  10.533  1.00  0.00     0.085 C 
HETATM   12  C18 UNL     1       0.396   7.048  12.679  1.00  0.00     0.035 C 
HETATM   13  C19 UNL     1      -0.654   7.074  13.807  1.00  0.00     0.010 C 
HETATM   14  C20 UNL     1      -1.976   6.502  13.278  1.00  0.00     0.006 C 
HETATM   15  C21 UNL     1      -3.277   6.801  14.115  1.00  0.00    -0.033 C 
HETATM   16  C22 UNL     1      -3.158   6.165  15.521  1.00  0.00     0.016 C 
HETATM   17  C23 UNL     1      -3.449   8.346  14.277  1.00  0.00     0.012 C 
HETATM   18  C24 UNL     1      -4.864   8.870  14.008  1.00  0.00     0.035 C 
HETATM   19  C25 UNL     1      -5.950   7.969  14.587  1.00  0.00     0.153 C 
ENDROOT
BRANCH  11  20
HETATM   20  C13 UNL     1       1.493   6.724   9.692  1.00  0.00     0.283 C 
HETATM   21  O4  UNL     1       1.072   7.864   9.552  1.00  0.00    -0.260 OA
BRANCH  20  22
HETATM   22  O5  UNL     1       2.608   6.225   9.116  1.00  0.00    -0.316 OA
BRANCH  22  23
HETATM   23  C14 UNL     1       3.572   5.698  10.042  1.00  0.00     0.209 C 
BRANCH  23  24
HETATM   24  C15 UNL     1       4.389   6.873  10.603  1.00  0.00     0.298 C 
BRANCH  24  25
HETATM   25  N1  UNL     1       5.364   6.587  11.666  1.00  0.00     0.082 N 
HETATM   26  C16 UNL     1       6.642   6.112  11.139  1.00  0.00     0.309 C 
HETATM   27  C17 UNL     1       5.563   7.722  12.564  1.00  0.00     0.309 C 
ENDBRANCH  24  25
ENDBRANCH  23  24
ENDBRANCH  22  23
ENDBRANCH  20  22
ENDBRANCH  11  20
BRANCH   1  28
HETATM   28  O2  UNL     1      -6.109   5.459  14.954  1.00  0.00    -0.308 OA
BRANCH  28  29
HETATM   29  C2  UNL     1      -7.353   4.976  15.200  1.00  0.00     0.255 C 
HETATM   30  C1  UNL     1      -7.572   3.711  14.430  1.00  0.00     0.126 C 
HETATM   31  O1  UNL     1      -8.173   5.476  15.957  1.00  0.00    -0.266 OA
ENDBRANCH  28  29
ENDBRANCH   1  28
BRANCH  19  32
HETATM   32  O6  UNL     1      -5.810   7.997  16.008  1.00  0.00    -0.393 OA
HETATM   33  H39 UNL     1      -6.697   7.782  16.363  1.00  0.00     0.210 HD
ENDBRANCH  19  32
TORSDOF 8
ENDMDL
