MODEL 1
REMARK minimizedAffinity -9.42119598
REMARK CNNscore 0.687837362
REMARK CNNaffinity 7.439394
REMARK  9 active torsions:
REMARK  status: ('A' for Active; 'I' for Inactive)
REMARK    1  A    between atoms: C3_3  and  C4_4 
REMARK    2  A    between atoms: C3_3  and  C27_30 
REMARK    3  A    between atoms: C4_4  and  C5_5 
REMARK    4  A    between atoms: C5_5  and  C6_6 
REMARK    5  A    between atoms: C6_6  and  C8_8 
REMARK    6  A    between atoms: C15_15  and  O1_16 
REMARK    7  A    between atoms: C18_19  and  C19_20 
REMARK    8  A    between atoms: C19_20  and  O2_21 
REMARK    9  A    between atoms: C22_24  and  O3_25 
ROOT
HETATM    1  C8  UNL     1      -1.614   5.700  12.617  1.00  0.00     0.001 C 
HETATM    2  C9  UNL     1      -2.076   4.452  11.821  1.00  0.00     0.006 C 
HETATM    3  C10 UNL     1      -3.596   4.344  12.019  1.00  0.00     0.010 C 
HETATM    4  C11 UNL     1      -3.992   5.667  12.674  1.00  0.00     0.026 C 
HETATM    5  C12 UNL     1      -5.335   5.834  13.349  1.00  0.00    -0.072 C 
HETATM    6  C13 UNL     1      -5.504   6.798  14.292  1.00  0.00    -0.064 C 
HETATM    7  C14 UNL     1      -4.322   7.665  14.751  1.00  0.00     0.068 C 
HETATM    8  C15 UNL     1      -2.971   7.444  14.025  1.00  0.00     0.131 C 
HETATM    9  C16 UNL     1      -2.789   5.971  13.608  1.00  0.00    -0.006 C 
HETATM   10  C17 UNL     1      -2.730   5.042  14.846  1.00  0.00     0.019 C 
HETATM   11  C18 UNL     1      -6.875   7.012  15.003  1.00  0.00     0.009 C 
HETATM   12  C20 UNL     1      -7.198   8.521  15.272  1.00  0.00     0.019 C 
HETATM   13  C21 UNL     1      -8.622   8.983  14.920  1.00  0.00     0.033 C 
HETATM   14  C22 UNL     1      -9.713   7.973  15.249  1.00  0.00     0.118 C 
HETATM   15  C23 UNL     1      -9.427   6.576  14.691  1.00  0.00     0.037 C 
HETATM   16  C24 UNL     1      -8.015   6.445  14.095  1.00  0.00     0.003 C 
HETATM   17  C25 UNL     1      -7.740   5.007  13.660  1.00  0.00     0.010 C 
HETATM   18  C26 UNL     1      -6.440   4.925  12.866  1.00  0.00     0.035 C 
ENDROOT
BRANCH   1  19
HETATM   19  C6  UNL     1      -0.159   5.659  13.173  1.00  0.00    -0.013 C 
HETATM   20  C7  UNL     1      -0.057   6.617  14.372  1.00  0.00     0.010 C 
BRANCH  19  21
HETATM   21  C5  UNL     1       0.949   6.001  12.149  1.00  0.00     0.009 C 
BRANCH  21  22
HETATM   22  C4  UNL     1       0.551   5.916  10.663  1.00  0.00     0.034 C 
BRANCH  22  23
HETATM   23  C3  UNL     1       0.999   7.087   9.801  1.00  0.00    -0.081 C 
HETATM   24  C2  UNL     1       0.474   8.323   9.933  1.00  0.00    -0.028 C 
HETATM   25  C1  UNL     1      -0.617   8.735  10.872  1.00  0.00     0.036 C 
BRANCH  23  26
HETATM   26  C27 UNL     1       2.157   6.786   8.847  1.00  0.00     0.006 C 
HETATM   27  C28 UNL     1       1.950   7.281   7.412  1.00  0.00     0.014 C 
HETATM   28  C29 UNL     1       3.471   7.342   9.407  1.00  0.00     0.014 C 
ENDBRANCH  23  26
ENDBRANCH  22  23
ENDBRANCH  21  22
ENDBRANCH  19  21
ENDBRANCH   1  19
BRANCH   8  29
HETATM   29  O1  UNL     1      -1.903   7.920  14.838  1.00  0.00    -0.394 OA
HETATM   30  H22 UNL     1      -1.869   7.389  15.652  1.00  0.00     0.210 HD
ENDBRANCH   8  29
BRANCH  11  31
HETATM   31  C19 UNL     1      -6.736   6.253  16.367  1.00  0.00     0.178 C 
BRANCH  31  32
HETATM   32  O2  UNL     1      -7.267   6.967  17.476  1.00  0.00    -0.400 OA
HETATM   33  H28 UNL     1      -7.196   6.372  18.246  1.00  0.00     0.209 HD
ENDBRANCH  31  32
ENDBRANCH  11  31
BRANCH  14  34
HETATM   34  O3  UNL     1      -9.899   7.920  16.660  1.00  0.00    -0.396 OA
HETATM   35  H34 UNL     1      -9.151   7.397  17.023  1.00  0.00     0.210 HD
ENDBRANCH  14  34
TORSDOF 9
ENDMDL
