MODEL 1
REMARK minimizedAffinity -8.03105259
REMARK  14 active torsions:
REMARK  status: ('A' for Active; 'I' for Inactive)
REMARK    1  A    between atoms: O1_2  and  C2_3 
REMARK    2  A    between atoms: C2_3  and  C3_4 
REMARK    3  A    between atoms: C2_3  and  C24_30 
REMARK    4  A    between atoms: C3_4  and  C5_6 
REMARK    5  A    between atoms: C6_8  and  C8_10 
REMARK    6  A    between atoms: C8_10  and  C9_11 
REMARK    7  A    between atoms: C9_11  and  O3_13 
REMARK    8  A    between atoms: C9_11  and  C11_14 
REMARK    9  A    between atoms: C12_15  and  C13_16 
REMARK   10  A    between atoms: C14_17  and  C16_19 
REMARK   11  A    between atoms: C17_21  and  C18_22 
REMARK   12  A    between atoms: C18_22  and  C19_23 
REMARK   13  A    between atoms: C19_23  and  O6_25 
REMARK   14  A    between atoms: C24_30  and  O7_32 
ROOT
HETATM    1  C9  UNL     1      -2.976  50.615 -22.610  1.00  0.00     0.075 C 
HETATM    2  C10 UNL     1      -3.382  50.442 -21.144  1.00  0.00     0.050 C 
ENDROOT
BRANCH   1   3
HETATM    3  C8  UNL     1      -2.820  52.098 -23.017  1.00  0.00     0.082 C 
BRANCH   3   4
HETATM    4  C6  UNL     1      -2.510  52.336 -24.483  1.00  0.00     0.087 A 
HETATM    5  C5  UNL     1      -1.073  52.160 -24.976  1.00  0.00     0.163 A 
HETATM    6  O2  UNL     1      -1.616  53.449 -24.674  1.00  0.00    -0.369 OA
HETATM    7  C7  UNL     1      -3.671  52.362 -25.434  1.00  0.00     0.049 C 
BRANCH   5   8
HETATM    8  C3  UNL     1      -0.697  51.945 -26.425  1.00  0.00     0.045 C 
HETATM    9  C4  UNL     1      -0.413  50.451 -26.637  1.00  0.00     0.015 C 
BRANCH   8  10
HETATM   10  C2  UNL     1       0.530  52.826 -26.808  1.00  0.00     0.155 C 
BRANCH  10  11
HETATM   11  O1  UNL     1       1.455  52.041 -27.586  1.00  0.00    -0.388 OA
HETATM   12  C1  UNL     1       2.614  51.659 -26.857  1.00  0.00     0.202 C 
ENDBRANCH  10  11
BRANCH  10  13
HETATM   13  C24 UNL     1       0.114  54.084 -27.625  1.00  0.00     0.143 C 
HETATM   14  C25 UNL     1      -1.261  53.932 -28.269  1.00  0.00     0.042 C 
BRANCH  13  15
HETATM   15  O7  UNL     1       0.089  55.247 -26.793  1.00  0.00    -0.393 OA
HETATM   16  H42 UNL     1      -0.136  56.006 -27.355  1.00  0.00     0.210 HD
ENDBRANCH  13  15
ENDBRANCH  10  13
ENDBRANCH   8  10
ENDBRANCH   5   8
ENDBRANCH   3   4
ENDBRANCH   1   3
BRANCH   1  17
HETATM   17  O3  UNL     1      -1.729  49.943 -22.801  1.00  0.00    -0.386 OA
HETATM   18  H18 UNL     1      -1.872  49.009 -22.566  1.00  0.00     0.211 HD
ENDBRANCH   1  17
BRANCH   1  19
HETATM   19  C11 UNL     1      -4.030  49.974 -23.495  1.00  0.00     0.010 C 
HETATM   20  C12 UNL     1      -3.862  48.904 -24.292  1.00  0.00    -0.001 C 
BRANCH  20  21
HETATM   21  C13 UNL     1      -4.935  48.359 -25.094  1.00  0.00     0.005 C 
HETATM   22  C14 UNL     1      -4.946  48.174 -26.431  1.00  0.00    -0.055 C 
HETATM   23  C15 UNL     1      -3.817  48.513 -27.367  1.00  0.00     0.046 C 
BRANCH  22  24
HETATM   24  C16 UNL     1      -6.158  47.557 -27.121  1.00  0.00     0.154 C 
HETATM   25  O4  UNL     1      -7.311  47.869 -26.322  1.00  0.00    -0.375 OA
HETATM   26  C17 UNL     1      -8.502  47.215 -26.778  1.00  0.00     0.132 C 
HETATM   27  C20 UNL     1      -8.842  47.708 -28.187  1.00  0.00     0.033 C 
HETATM   28  C21 UNL     1      -7.671  47.469 -29.135  1.00  0.00     0.009 C 
HETATM   29  C22 UNL     1      -6.372  48.060 -28.568  1.00  0.00     0.015 C 
HETATM   30  C23 UNL     1      -5.199  47.732 -29.492  1.00  0.00     0.012 C 
BRANCH  26  31
HETATM   31  C18 UNL     1      -9.605  47.540 -25.776  1.00  0.00     0.141 C 
BRANCH  31  32
HETATM   32  C19 UNL     1     -10.300  48.827 -26.096  1.00  0.00     0.141 C 
HETATM   33  O5  UNL     1     -11.451  48.946 -26.481  1.00  0.00    -0.650 OA
BRANCH  32  34
HETATM   34  O6  UNL     1      -9.516  49.911 -25.943  1.00  0.00    -0.776 OA
HETATM   35  H29 UNL     1     -10.089  50.657 -26.218  1.00  0.00     0.167 HD
ENDBRANCH  32  34
ENDBRANCH  31  32
ENDBRANCH  26  31
ENDBRANCH  22  24
ENDBRANCH  20  21
ENDBRANCH   1  19
TORSDOF 14
ENDMDL
