MODEL 1
REMARK minimizedAffinity -8.00710583
REMARK  10 active torsions:
REMARK  status: ('A' for Active; 'I' for Inactive)
REMARK    1  A    between atoms: O1_1  and  C1_2 
REMARK    2  A    between atoms: C1_2  and  C2_3 
REMARK    3  A    between atoms: C3_5  and  C4_6 
REMARK    4  A    between atoms: C4_6  and  O2_7 
REMARK    5  A    between atoms: C4_6  and  C5_8 
REMARK    6  A    between atoms: C5_8  and  C6_9 
REMARK    7  A    between atoms: C6_9  and  C7_10 
REMARK    8  A    between atoms: C7_10  and  C8_11 
REMARK    9  A    between atoms: C17_22  and  O5_23 
REMARK   10  A    between atoms: C18_24  and  O6_25 
ROOT
HETATM    1  C4  UNL     1      -3.783   6.264  14.790  1.00  0.00     0.154 C 
ENDROOT
BRANCH   1   2
HETATM    2  C3  UNL     1      -5.296   6.393  14.472  1.00  0.00     0.280 C 
HETATM    3  N1  UNL     1      -5.740   5.623  13.282  1.00  0.00     0.102 N 
HETATM    4  C2  UNL     1      -6.598   4.519  13.778  1.00  0.00     0.275 C 
HETATM    5  H5  UNL     1      -4.957   5.248  12.749  1.00  0.00     0.317 HD
HETATM    6  C18 UNL     1      -7.296   5.121  14.994  1.00  0.00     0.184 C 
HETATM    7  C17 UNL     1      -6.166   5.911  15.653  1.00  0.00     0.184 C 
BRANCH   4   8
HETATM    8  C1  UNL     1      -7.588   4.078  12.694  1.00  0.00     0.202 C 
BRANCH   8   9
HETATM    9  O1  UNL     1      -8.803   3.622  13.295  1.00  0.00    -0.399 OA
HETATM   10  H1  UNL     1      -8.944   4.224  14.053  1.00  0.00     0.209 HD
ENDBRANCH   8   9
ENDBRANCH   4   8
BRANCH   6  11
HETATM   11  O6  UNL     1      -7.799   4.122  15.874  1.00  0.00    -0.391 OA
HETATM   12  H33 UNL     1      -8.011   4.577  16.711  1.00  0.00     0.210 HD
ENDBRANCH   6  11
BRANCH   7  13
HETATM   13  O5  UNL     1      -6.700   6.991  16.421  1.00  0.00    -0.391 OA
HETATM   14  H31 UNL     1      -7.229   7.551  15.824  1.00  0.00     0.210 HD
ENDBRANCH   7  13
ENDBRANCH   1   2
BRANCH   1  15
HETATM   15  O2  UNL     1      -3.592   6.037  16.192  1.00  0.00    -0.393 OA
HETATM   16  H8  UNL     1      -3.937   5.154  16.408  1.00  0.00     0.210 HD
ENDBRANCH   1  15
BRANCH   1  17
HETATM   17  C5  UNL     1      -3.044   5.151  14.027  1.00  0.00     0.034 C 
BRANCH  17  18
HETATM   18  C6  UNL     1      -2.183   5.668  12.874  1.00  0.00     0.005 C 
BRANCH  18  19
HETATM   19  C7  UNL     1      -0.685   5.391  13.042  1.00  0.00     0.032 C 
BRANCH  19  20
HETATM   20  C8  UNL     1       0.249   6.445  12.429  1.00  0.00     0.125 C 
HETATM   21  C9  UNL     1       1.405   6.855  13.347  1.00  0.00     0.032 C 
HETATM   22  C10 UNL     1       2.631   7.318  12.559  1.00  0.00     0.008 C 
HETATM   23  C11 UNL     1       2.213   7.892  11.213  1.00  0.00     0.068 C 
HETATM   24  C12 UNL     1       1.419   6.854  10.376  1.00  0.00     0.164 C 
HETATM   25  C13 UNL     1       2.329   6.038   9.430  1.00  0.00     0.068 C 
HETATM   26  O3  UNL     1       0.390   7.495   9.619  1.00  0.00    -0.355 OA
HETATM   27  O4  UNL     1       0.806   5.877  11.240  1.00  0.00    -0.350 OA
HETATM   28  C14 UNL     1       2.307   6.528   7.984  1.00  0.00     0.007 C 
HETATM   29  C15 UNL     1       2.107   8.028   7.918  1.00  0.00     0.026 C 
HETATM   30  C16 UNL     1       0.838   8.444   8.654  1.00  0.00     0.171 C 
ENDBRANCH  19  20
ENDBRANCH  18  19
ENDBRANCH  17  18
ENDBRANCH   1  17
TORSDOF 10
ENDMDL
