MODEL 1
REMARK minimizedAffinity -8.71222878
REMARK CNNscore 0.52643317
REMARK CNNaffinity 7.38326883
REMARK  6 active torsions:
REMARK  status: ('A' for Active; 'I' for Inactive)
REMARK    1  A    between atoms: C2_2  and  C30_31 
REMARK    2  A    between atoms: C3_3  and  C4_4 
REMARK    3  A    between atoms: C4_4  and  C5_5 
REMARK    4  A    between atoms: C5_5  and  C6_6 
REMARK    5  A    between atoms: C6_6  and  C8_8 
REMARK    6  A    between atoms: C30_31  and  O3_33 
ROOT
HETATM    1  C8  UNL     1      -5.675   5.239  13.618  1.00  0.00    -0.002 C 
HETATM    2  C9  UNL     1      -5.373   5.415  15.140  1.00  0.00     0.007 C 
HETATM    3  C10 UNL     1      -6.578   6.153  15.768  1.00  0.00     0.015 C 
HETATM    4  C11 UNL     1      -7.380   6.675  14.563  1.00  0.00    -0.013 C 
HETATM    5  C12 UNL     1      -6.666   7.995  14.100  1.00  0.00     0.021 C 
HETATM    6  C13 UNL     1      -8.853   7.057  14.760  1.00  0.00    -0.070 C 
HETATM    7  C14 UNL     1      -9.218   7.839  15.787  1.00  0.00    -0.022 C 
HETATM    8  C15 UNL     1     -10.525   8.553  15.868  1.00  0.00     0.034 C 
HETATM    9  C16 UNL     1     -11.210   8.737  14.486  1.00  0.00     0.013 C 
HETATM   10  C17 UNL     1     -12.605   9.465  14.605  1.00  0.00     0.018 C 
HETATM   11  C18 UNL     1     -12.787  10.450  13.426  1.00  0.00     0.023 C 
HETATM   12  C19 UNL     1     -12.783  10.298  15.891  1.00  0.00     0.023 C 
HETATM   13  C20 UNL     1     -13.745   8.439  14.599  1.00  0.00     0.135 C 
HETATM   14  O1  UNL     1     -14.885   8.730  14.232  1.00  0.00    -0.297 OA
HETATM   15  C21 UNL     1     -13.451   7.067  15.158  1.00  0.00     0.080 C 
HETATM   16  C22 UNL     1     -12.204   6.413  14.563  1.00  0.00     0.017 C 
HETATM   17  C23 UNL     1     -11.271   7.359  13.736  1.00  0.00    -0.031 C 
HETATM   18  C24 UNL     1     -11.885   7.474  12.319  1.00  0.00     0.016 C 
HETATM   19  C25 UNL     1      -9.829   6.680  13.636  1.00  0.00     0.024 C 
HETATM   20  C26 UNL     1      -9.090   6.775  12.279  1.00  0.00     0.010 C 
HETATM   21  C27 UNL     1      -7.797   5.916  12.193  1.00  0.00     0.011 C 
HETATM   22  C28 UNL     1      -7.221   5.478  13.561  1.00  0.00    -0.029 C 
HETATM   23  C29 UNL     1      -7.915   4.160  14.044  1.00  0.00     0.016 C 
ENDROOT
BRANCH   1  24
HETATM   24  C6  UNL     1      -5.078   3.926  13.035  1.00  0.00    -0.014 C 
HETATM   25  C7  UNL     1      -5.904   3.375  11.868  1.00  0.00     0.010 C 
BRANCH  24  26
HETATM   26  C5  UNL     1      -3.592   4.072  12.612  1.00  0.00     0.008 C 
BRANCH  26  27
HETATM   27  C4  UNL     1      -3.332   4.045  11.101  1.00  0.00     0.028 C 
BRANCH  27  28
HETATM   28  C3  UNL     1      -2.257   3.046  10.766  1.00  0.00    -0.013 C 
HETATM   29  C2  UNL     1      -2.243   1.721  11.022  1.00  0.00     0.008 C 
HETATM   30  C1  UNL     1      -3.323   0.935  11.706  1.00  0.00     0.055 C 
BRANCH  29  31
HETATM   31  C30 UNL     1      -1.037   0.976  10.571  1.00  0.00     0.171 C 
HETATM   32  O2  UNL     1      -0.232   0.395  11.278  1.00  0.00    -0.646 OA
BRANCH  31  33
HETATM   33  O3  UNL     1      -0.892   0.997   9.237  1.00  0.00    -0.773 OA
HETATM   34  H46 UNL     1      -0.074   0.479   9.091  1.00  0.00     0.167 HD
ENDBRANCH  31  33
ENDBRANCH  29  31
ENDBRANCH  27  28
ENDBRANCH  26  27
ENDBRANCH  24  26
ENDBRANCH   1  24
TORSDOF 6
ENDMDL
