MODEL 1
REMARK minimizedAffinity -8.77938461
REMARK CNNscore 0.606909096
REMARK CNNaffinity 6.81837463
REMARK  8 active torsions:
REMARK  status: ('A' for Active; 'I' for Inactive)
REMARK    1  A    between atoms: C2_2  and  C30_34 
REMARK    2  A    between atoms: C3_3  and  C4_4 
REMARK    3  A    between atoms: C4_4  and  O1_5 
REMARK    4  A    between atoms: C4_4  and  C5_6 
REMARK    5  A    between atoms: C5_6  and  C6_7 
REMARK    6  A    between atoms: C6_7  and  C8_9 
REMARK    7  A    between atoms: C10_11  and  O2_12 
REMARK    8  A    between atoms: C30_34  and  O6_36 
ROOT
HETATM    1  C8  UNL     1      -0.689  50.420 -19.067  1.00  0.00     0.001 C 
HETATM    2  C9  UNL     1      -1.043  49.263 -18.088  1.00  0.00     0.038 C 
HETATM    3  C10 UNL     1      -2.168  48.443 -18.753  1.00  0.00     0.131 C 
HETATM    4  C11 UNL     1      -2.113  48.855 -20.248  1.00  0.00     0.014 C 
HETATM    5  C12 UNL     1      -0.965  48.058 -20.947  1.00  0.00     0.023 C 
HETATM    6  C13 UNL     1      -3.343  48.639 -21.124  1.00  0.00    -0.058 C 
HETATM    7  C14 UNL     1      -3.599  49.441 -22.188  1.00  0.00    -0.000 C 
HETATM    8  C15 UNL     1      -2.566  50.502 -22.533  1.00  0.00     0.157 C 
HETATM    9  O3  UNL     1      -2.508  50.970 -23.670  1.00  0.00    -0.293 OA
HETATM   10  C16 UNL     1      -1.560  50.969 -21.483  1.00  0.00     0.094 C 
HETATM   11  C17 UNL     1      -1.863  50.405 -20.094  1.00  0.00    -0.019 C 
HETATM   12  C18 UNL     1      -3.090  51.176 -19.521  1.00  0.00     0.017 C 
HETATM   13  C19 UNL     1      -4.839  49.289 -23.099  1.00  0.00    -0.008 C 
HETATM   14  C20 UNL     1      -5.516  50.680 -23.249  1.00  0.00     0.021 C 
HETATM   15  C21 UNL     1      -4.362  48.785 -24.493  1.00  0.00     0.022 C 
HETATM   16  C22 UNL     1      -5.341  47.908 -25.258  1.00  0.00     0.080 C 
HETATM   17  C23 UNL     1      -6.764  48.197 -24.867  1.00  0.00     0.135 C 
HETATM   18  O4  UNL     1      -7.595  48.539 -25.707  1.00  0.00    -0.297 OA
HETATM   19  C24 UNL     1      -7.127  47.953 -23.401  1.00  0.00     0.018 C 
HETATM   20  C25 UNL     1      -8.341  48.831 -23.019  1.00  0.00     0.023 C 
HETATM   21  C26 UNL     1      -7.607  46.489 -23.320  1.00  0.00     0.023 C 
HETATM   22  C27 UNL     1      -5.901  48.296 -22.464  1.00  0.00     0.014 C 
HETATM   23  C28 UNL     1      -5.173  47.061 -21.903  1.00  0.00     0.011 C 
HETATM   24  C29 UNL     1      -4.207  47.455 -20.789  1.00  0.00     0.036 C 
ENDROOT
BRANCH   1  25
HETATM   25  C6  UNL     1      -0.190  51.713 -18.354  1.00  0.00    -0.011 C 
HETATM   26  C7  UNL     1       0.132  52.918 -19.246  1.00  0.00     0.010 C 
BRANCH  25  27
HETATM   27  C5  UNL     1       0.989  51.412 -17.400  1.00  0.00     0.040 C 
BRANCH  27  28
HETATM   28  C4  UNL     1       0.886  52.037 -16.000  1.00  0.00     0.142 C 
BRANCH  28  29
HETATM   29  C3  UNL     1       1.620  51.268 -14.935  1.00  0.00     0.018 C 
HETATM   30  C2  UNL     1       2.943  51.241 -14.665  1.00  0.00     0.010 C 
HETATM   31  C1  UNL     1       4.011  51.956 -15.440  1.00  0.00     0.055 C 
BRANCH  30  32
HETATM   32  C30 UNL     1       3.465  50.430 -13.532  1.00  0.00     0.171 C 
HETATM   33  O5  UNL     1       3.668  50.842 -12.404  1.00  0.00    -0.646 OA
BRANCH  32  34
HETATM   34  O6  UNL     1       3.717  49.148 -13.847  1.00  0.00    -0.773 OA
HETATM   35  H44 UNL     1       4.047  48.772 -13.006  1.00  0.00     0.167 HD
ENDBRANCH  32  34
ENDBRANCH  30  32
ENDBRANCH  28  29
BRANCH  28  36
HETATM   36  O1  UNL     1       1.375  53.372 -16.067  1.00  0.00    -0.392 OA
HETATM   37  H6  UNL     1       1.350  53.732 -15.163  1.00  0.00     0.210 HD
ENDBRANCH  28  36
ENDBRANCH  27  28
ENDBRANCH  25  27
ENDBRANCH   1  25
BRANCH   3  38
HETATM   38  O2  UNL     1      -1.966  47.055 -18.537  1.00  0.00    -0.394 OA
HETATM   39  H17 UNL     1      -1.913  46.910 -17.577  1.00  0.00     0.210 HD
ENDBRANCH   3  38
TORSDOF 8
ENDMDL
