MODEL 1
REMARK minimizedAffinity -6.33758783
REMARK CNNscore 0.580750525
REMARK CNNaffinity 6.52745771
REMARK  9 active torsions:
REMARK  status: ('A' for Active; 'I' for Inactive)
REMARK    1  A    between atoms: C2_2  and  C3_3 
REMARK    2  A    between atoms: C3_3  and  C5_5 
REMARK    3  A    between atoms: C3_3  and  C6_7 
REMARK    4  A    between atoms: C5_5  and  O1_6 
REMARK    5  A    between atoms: C7_8  and  O2_9 
REMARK    6  A    between atoms: C18_22  and  O5_23 
REMARK    7  A    between atoms: O5_23  and  C19_24 
REMARK    8  A    between atoms: C19_24  and  C20_26 
REMARK    9  A    between atoms: C29_36  and  O8_37 
ROOT
HETATM    1  C6  UNL     1      -1.614  51.801 -12.816  1.00  0.00     0.023 A 
HETATM    2  C7  UNL     1      -2.458  52.582 -12.002  1.00  0.00     0.076 A 
HETATM    3  C8  UNL     1      -1.953  53.501 -11.076  1.00  0.00     0.053 A 
HETATM    4  C9  UNL     1      -0.575  53.646 -10.902  1.00  0.00     0.034 A 
HETATM    5  C10 UNL     1      -0.077  54.670  -9.967  1.00  0.00     0.192 A 
HETATM    6  O3  UNL     1      -0.865  55.445  -9.442  1.00  0.00    -0.287 OA
HETATM    7  C11 UNL     1       1.389  54.779  -9.733  1.00  0.00     0.035 A 
HETATM    8  C12 UNL     1       2.234  54.027 -10.459  1.00  0.00     0.131 A 
HETATM    9  O4  UNL     1       3.604  54.198 -10.420  1.00  0.00    -0.336 OA
HETATM   10  C13 UNL     1       4.064  55.509 -10.058  1.00  0.00     0.065 C 
HETATM   11  C14 UNL     1       5.598  55.405 -10.009  1.00  0.00     0.046 C 
HETATM   12  C15 UNL     1       3.732  56.510 -11.191  1.00  0.00     0.046 C 
HETATM   13  C16 UNL     1       3.433  55.953  -8.706  1.00  0.00     0.031 C 
HETATM   14  C17 UNL     1       4.031  55.261  -7.455  1.00  0.00     0.041 C 
HETATM   15  C18 UNL     1       3.253  54.027  -7.002  1.00  0.00     0.136 C 
HETATM   16  C23 UNL     1       1.829  54.419  -6.568  1.00  0.00     0.012 C 
HETATM   17  C24 UNL     1       0.883  53.217  -6.691  1.00  0.00     0.012 C 
HETATM   18  C25 UNL     1       1.313  55.659  -7.320  1.00  0.00     0.017 C 
HETATM   19  C26 UNL     1       1.873  55.831  -8.750  1.00  0.00     0.033 C 
HETATM   20  C27 UNL     1       1.746  52.969 -11.392  1.00  0.00     0.219 A 
HETATM   21  O7  UNL     1       2.519  52.212 -11.970  1.00  0.00    -0.284 OA
HETATM   22  C28 UNL     1       0.296  52.839 -11.616  1.00  0.00     0.065 A 
HETATM   23  C29 UNL     1      -0.221  51.913 -12.547  1.00  0.00     0.091 A 
ENDROOT
BRANCH   1  24
HETATM   24  C3  UNL     1      -2.130  50.837 -13.935  1.00  0.00     0.027 C 
HETATM   25  C4  UNL     1      -3.334  51.371 -14.756  1.00  0.00     0.027 C 
BRANCH  24  26
HETATM   26  C2  UNL     1      -1.052  50.676 -15.025  1.00  0.00    -0.021 C 
HETATM   27  C1  UNL     1      -1.109  49.926 -16.136  1.00  0.00     0.008 C 
ENDBRANCH  24  26
BRANCH  24  28
HETATM   28  C5  UNL     1      -2.569  49.510 -13.228  1.00  0.00     0.182 C 
BRANCH  28  29
HETATM   29  O1  UNL     1      -3.942  49.463 -12.838  1.00  0.00    -0.399 OA
HETATM   30  H9  UNL     1      -4.094  50.164 -12.186  1.00  0.00     0.209 HD
ENDBRANCH  28  29
ENDBRANCH  24  28
ENDBRANCH   1  24
BRANCH   2  31
HETATM   31  O2  UNL     1      -3.815  52.453 -12.074  1.00  0.00    -0.360 OA
HETATM   32  H10 UNL     1      -4.228  52.878 -11.302  1.00  0.00     0.217 HD
ENDBRANCH   2  31
BRANCH  23  33
HETATM   33  O8  UNL     1       0.625  51.066 -13.217  1.00  0.00    -0.359 OA
HETATM   34  H36 UNL     1       1.558  51.210 -12.931  1.00  0.00     0.217 HD
ENDBRANCH  23  33
BRANCH  15  35
HETATM   35  O5  UNL     1       3.937  53.491  -5.848  1.00  0.00    -0.315 OA
BRANCH  35  36
HETATM   36  C19 UNL     1       5.019  52.688  -6.064  1.00  0.00     0.262 C 
HETATM   37  O6  UNL     1       4.995  51.620  -6.658  1.00  0.00    -0.265 OA
BRANCH  36  38
HETATM   38  C20 UNL     1       6.255  53.320  -5.443  1.00  0.00     0.077 C 
HETATM   39  C21 UNL     1       7.326  52.266  -5.174  1.00  0.00     0.020 C 
HETATM   40  C22 UNL     1       5.875  54.057  -4.165  1.00  0.00     0.020 C 
ENDBRANCH  36  38
ENDBRANCH  35  36
ENDBRANCH  15  35
TORSDOF 9
ENDMDL
