MODEL 1
REMARK minimizedAffinity -9.56661224
REMARK CNNscore 0.642728627
REMARK CNNaffinity 7.44044304
REMARK  9 active torsions:
REMARK  status: ('A' for Active; 'I' for Inactive)
REMARK    1  A    between atoms: C3_3  and  O1_4 
REMARK    2  A    between atoms: N1_14  and  O2_16 
REMARK    3  A    between atoms: O2_16  and  C13_17 
REMARK    4  A    between atoms: C13_17  and  C14_18 
REMARK       I    between atoms: C14_18  and  N2_20 
REMARK    5  A    between atoms: N2_20  and  C15_21 
REMARK    6  A    between atoms: C15_21  and  C16_22 
REMARK    7  A    between atoms: C15_21  and  C18_26 
REMARK    8  A    between atoms: C16_22  and  C17_23 
REMARK    9  A    between atoms: C17_23  and  O5_25 
ROOT
HETATM    1  C1  UNL     1      -9.793   8.558  15.116  1.00  0.00     0.015 C 
HETATM    2  C2  UNL     1      -8.972   7.677  15.102  1.00  0.00    -0.078 C 
HETATM    3  C3  UNL     1      -7.962   6.611  15.074  1.00  0.00     0.128 C 
HETATM    4  C4  UNL     1      -7.406   6.322  16.467  1.00  0.00     0.052 C 
HETATM    5  C5  UNL     1      -6.101   5.576  16.216  1.00  0.00     0.010 C 
HETATM    6  C6  UNL     1      -5.614   5.976  14.805  1.00  0.00     0.002 C 
HETATM    7  C7  UNL     1      -4.209   6.603  14.757  1.00  0.00    -0.004 C 
HETATM    8  C8  UNL     1      -3.109   5.621  15.176  1.00  0.00     0.010 C 
HETATM    9  C9  UNL     1      -1.736   6.230  14.908  1.00  0.00     0.035 C 
HETATM   10  C10 UNL     1      -1.552   7.583  15.558  1.00  0.00    -0.069 C 
HETATM   11  C11 UNL     1      -0.383   7.865  16.159  1.00  0.00     0.030 C 
HETATM   12  C12 UNL     1      -0.064   9.222  16.670  1.00  0.00     0.032 C 
HETATM   13  N1  UNL     1       1.167   9.463  17.027  1.00  0.00    -0.271 N 
ATOM     14  H1  UNL     1       1.909   8.764  17.027  1.00  0.00     0.194 HD
HETATM   15  C25 UNL     1      -1.156  10.274  16.656  1.00  0.00     0.060 C 
HETATM   16  C26 UNL     1      -2.545   9.656  16.567  1.00  0.00     0.020 C 
HETATM   17  C27 UNL     1      -2.695   8.601  15.435  1.00  0.00    -0.016 C 
HETATM   18  C28 UNL     1      -2.578   9.286  14.051  1.00  0.00     0.020 C 
HETATM   19  C29 UNL     1      -4.092   7.886  15.614  1.00  0.00     0.002 C 
HETATM   20  C30 UNL     1      -5.326   8.800  15.432  1.00  0.00     0.007 C 
HETATM   21  C31 UNL     1      -6.204   8.414  14.244  1.00  0.00     0.014 C 
HETATM   22  C32 UNL     1      -6.697   6.930  14.207  1.00  0.00     0.003 C 
HETATM   23  C33 UNL     1      -6.949   6.588  12.715  1.00  0.00     0.020 C 
ENDROOT
BRANCH   3  24
HETATM   24  O1  UNL     1      -8.616   5.421  14.617  1.00  0.00    -0.377 OA
HETATM   25  H2  UNL     1      -7.953   4.718  14.557  1.00  0.00     0.211 HD
ENDBRANCH   3  24
BRANCH  13  26
HETATM   26  O2  UNL     1       1.347  10.801  17.411  1.00  0.00    -0.271 OA
BRANCH  26  27
HETATM   27  C13 UNL     1       1.001  10.947  18.784  1.00  0.00     0.303 C 
BRANCH  27  28
HETATM   28  C14 UNL     1       2.226  10.828  19.678  1.00  0.00     0.244 C 
HETATM   29  O3  UNL     1       3.317  10.449  19.251  1.00  0.00    -0.271 OA
HETATM   30  N2  UNL     1       1.979  11.110  21.010  1.00  0.00    -0.354 N 
HETATM   31  H16 UNL     1       1.008  11.284  21.267  1.00  0.00     0.162 HD
BRANCH  30  32
HETATM   32  C15 UNL     1       2.989  10.902  22.057  1.00  0.00     0.098 C 
BRANCH  32  33
HETATM   33  C16 UNL     1       3.407   9.425  22.045  1.00  0.00     0.135 C 
BRANCH  33  34
HETATM   34  C17 UNL     1       2.446   8.543  22.784  1.00  0.00     0.141 C 
HETATM   35  O4  UNL     1       1.738   7.679  22.291  1.00  0.00    -0.650 OA
BRANCH  34  36
HETATM   36  O5  UNL     1       2.431   8.773  24.107  1.00  0.00    -0.776 OA
HETATM   37  H20 UNL     1       1.780   8.129  24.464  1.00  0.00     0.167 HD
ENDBRANCH  34  36
ENDBRANCH  33  34
ENDBRANCH  32  33
BRANCH  32  38
HETATM   38  C18 UNL     1       4.131  11.949  21.889  1.00  0.00     0.014 C 
HETATM   39  C19 UNL     1       3.770  13.327  22.480  1.00  0.00     0.033 C 
HETATM   40  C20 UNL     1       4.978  14.043  23.074  1.00  0.00     0.169 C 
HETATM   41  O6  UNL     1       6.105  13.883  22.221  1.00  0.00    -0.381 OA
HETATM   42  C21 UNL     1       6.599  12.537  22.133  1.00  0.00     0.054 C 
HETATM   43  C22 UNL     1       7.167  12.386  20.715  1.00  0.00     0.045 C 
HETATM   44  C23 UNL     1       7.742  12.382  23.143  1.00  0.00     0.045 C 
HETATM   45  C24 UNL     1       5.500  11.483  22.402  1.00  0.00     0.044 C 
ENDBRANCH  32  38
ENDBRANCH  30  32
ENDBRANCH  27  28
ENDBRANCH  26  27
ENDBRANCH  13  26
TORSDOF 9
ENDMDL
