MODEL 1
REMARK minimizedAffinity -7.01832008
REMARK CNNscore 0.572142899
REMARK CNNaffinity 6.24448633
REMARK  6 active torsions:
REMARK  status: ('A' for Active; 'I' for Inactive)
REMARK    1  A    between atoms: O1_2  and  C2_3 
REMARK    2  A    between atoms: C17_20  and  C18_21 
REMARK    3  A    between atoms: C22_27  and  O6_28 
REMARK    4  A    between atoms: O6_28  and  C23_29 
REMARK    5  A    between atoms: C26_33  and  O8_34 
REMARK    6  A    between atoms: C31_40  and  O10_41 
ROOT
HETATM    1  C2  UNL     1     -19.065  -9.602   6.811  1.00  0.00     0.190 C 
HETATM    2  C3  UNL     1     -19.238 -10.452   5.542  1.00  0.00     0.064 C 
HETATM    3  C4  UNL     1     -17.929 -10.685   4.796  1.00  0.00     0.174 C 
HETATM    4  O2  UNL     1     -17.139  -9.509   4.803  1.00  0.00    -0.356 OA
HETATM    5  C5  UNL     1     -16.615  -9.192   6.103  1.00  0.00     0.325 C 
HETATM    6  O3  UNL     1     -16.140  -7.839   6.050  1.00  0.00    -0.344 OA
HETATM    7  C6  UNL     1     -16.543  -7.043   7.156  1.00  0.00     0.177 C 
HETATM    8  C7  UNL     1     -15.668  -5.825   7.194  1.00  0.00     0.011 C 
HETATM    9  C8  UNL     1     -15.160  -5.288   8.321  1.00  0.00    -0.072 C 
HETATM   10  C9  UNL     1     -14.259  -4.081   8.258  1.00  0.00     0.035 C 
HETATM   11  C10 UNL     1     -14.776  -2.959   9.154  1.00  0.00     0.012 C 
HETATM   12  C11 UNL     1     -14.992  -3.428  10.613  1.00  0.00     0.026 C 
HETATM   13  C12 UNL     1     -15.946  -4.655  10.638  1.00  0.00     0.005 C 
HETATM   14  C13 UNL     1     -16.225  -5.094  12.085  1.00  0.00     0.007 C 
HETATM   15  C14 UNL     1     -16.784  -3.946  12.917  1.00  0.00     0.013 C 
HETATM   16  C15 UNL     1     -15.844  -2.708  12.981  1.00  0.00    -0.003 C 
HETATM   17  C16 UNL     1     -14.639  -3.065  13.875  1.00  0.00     0.019 C 
HETATM   18  C17 UNL     1     -16.666  -1.491  13.530  1.00  0.00     0.058 C 
HETATM   19  C22 UNL     1     -17.443  -0.994  12.278  1.00  0.00     0.143 C 
HETATM   20  C25 UNL     1     -16.656  -1.454  11.039  1.00  0.00     0.072 C 
HETATM   21  C26 UNL     1     -15.445  -2.261  11.543  1.00  0.00     0.072 C 
HETATM   22  C27 UNL     1     -15.457  -5.842   9.719  1.00  0.00    -0.014 C 
HETATM   23  C28 UNL     1     -14.167  -6.508  10.259  1.00  0.00     0.020 C 
HETATM   24  C29 UNL     1     -16.573  -6.931   9.659  1.00  0.00     0.049 C 
HETATM   25  C30 UNL     1     -16.439  -7.855   8.450  1.00  0.00     0.159 C 
HETATM   26  O9  UNL     1     -17.492  -8.822   8.501  1.00  0.00    -0.341 OA
HETATM   27  C31 UNL     1     -17.592  -9.589   7.294  1.00  0.00     0.240 C 
ENDROOT
BRANCH  18  28
HETATM   28  C18 UNL     1     -15.959  -0.404  14.310  1.00  0.00    -0.043 A 
HETATM   29  C19 UNL     1     -15.610   0.781  13.804  1.00  0.00     0.087 A 
HETATM   30  C20 UNL     1     -14.854   1.494  14.828  1.00  0.00     0.283 A 
HETATM   31  O4  UNL     1     -14.378   2.606  14.697  1.00  0.00    -0.260 OA
HETATM   32  O5  UNL     1     -14.747   0.704  15.926  1.00  0.00    -0.314 OA
HETATM   33  C21 UNL     1     -15.479  -0.508  15.709  1.00  0.00     0.214 A 
ENDBRANCH  18  28
BRANCH  19  34
HETATM   34  O6  UNL     1     -17.644   0.426  12.232  1.00  0.00    -0.316 OA
BRANCH  34  35
HETATM   35  C23 UNL     1     -18.852   0.829  11.746  1.00  0.00     0.255 C 
HETATM   36  C24 UNL     1     -19.600   1.595  12.793  1.00  0.00     0.126 C 
HETATM   37  O7  UNL     1     -19.288   0.573  10.631  1.00  0.00    -0.266 OA
ENDBRANCH  34  35
ENDBRANCH  19  34
BRANCH  21  38
HETATM   38  O8  UNL     1     -14.344  -1.349  11.643  1.00  0.00    -0.389 OA
HETATM   39  H35 UNL     1     -14.180  -0.944  10.773  1.00  0.00     0.210 HD
ENDBRANCH  21  38
BRANCH  27  40
HETATM   40  O10 UNL     1     -17.268 -10.927   7.716  1.00  0.00    -0.360 OA
HETATM   41  H42 UNL     1     -17.673 -10.985   8.598  1.00  0.00     0.213 HD
ENDBRANCH  27  40
BRANCH   1  42
HETATM   42  O1  UNL     1     -19.519  -8.257   6.578  1.00  0.00    -0.385 OA
HETATM   43  C1  UNL     1     -20.420  -8.149   5.483  1.00  0.00     0.202 C 
ENDBRANCH   1  42
TORSDOF 6
ENDMDL
