MODEL 1
REMARK minimizedAffinity -6.80849934
REMARK CNNscore 0.554249167
REMARK CNNaffinity 6.56455231
REMARK  8 active torsions:
REMARK  status: ('A' for Active; 'I' for Inactive)
REMARK    1  A    between atoms: C4_4  and  C5_5 
REMARK    2  A    between atoms: C5_5  and  C6_6 
REMARK    3  A    between atoms: C6_6  and  C7_7 
REMARK    4  A    between atoms: C7_7  and  C9_9 
REMARK    5  A    between atoms: C21_21  and  C22_22 
REMARK    6  A    between atoms: C22_22  and  C23_23 
REMARK    7  A    between atoms: C23_23  and  C24_24 
REMARK    8  A    between atoms: C24_24  and  O1_25 
ROOT
HETATM    1  C9  UNL     1      -3.584  52.066 -10.906  1.00  0.00    -0.002 C 
HETATM    2  C10 UNL     1      -3.954  53.539 -10.591  1.00  0.00     0.006 C 
HETATM    3  C11 UNL     1      -2.635  54.348 -10.609  1.00  0.00     0.011 C 
HETATM    4  C12 UNL     1      -1.566  53.317 -10.195  1.00  0.00    -0.032 C 
HETATM    5  C13 UNL     1      -1.712  53.175  -8.656  1.00  0.00     0.016 C 
HETATM    6  C14 UNL     1      -0.087  53.647 -10.562  1.00  0.00     0.003 C 
HETATM    7  C15 UNL     1       0.446  54.982 -10.016  1.00  0.00     0.010 C 
HETATM    8  C16 UNL     1       1.804  55.299 -10.641  1.00  0.00     0.035 C 
HETATM    9  C17 UNL     1       2.837  54.181 -10.426  1.00  0.00    -0.073 C 
HETATM   10  C18 UNL     1       4.012  54.461  -9.799  1.00  0.00    -0.085 C 
HETATM   11  C19 UNL     1       4.266  55.797  -9.120  1.00  0.00     0.043 C 
HETATM   12  C20 UNL     1       5.215  53.570  -9.648  1.00  0.00     0.043 C 
HETATM   13  C21 UNL     1       2.297  52.857 -11.049  1.00  0.00     0.023 C 
HETATM   14  C25 UNL     1       0.933  52.440 -10.315  1.00  0.00    -0.032 C 
HETATM   15  C26 UNL     1       1.227  52.203  -8.807  1.00  0.00     0.016 C 
HETATM   16  C27 UNL     1       0.335  51.110 -10.903  1.00  0.00     0.011 C 
HETATM   17  C28 UNL     1      -1.179  50.861 -10.659  1.00  0.00     0.011 C 
HETATM   18  C29 UNL     1      -2.023  52.079 -11.052  1.00  0.00    -0.032 C 
HETATM   19  C30 UNL     1      -1.811  52.267 -12.611  1.00  0.00     0.016 C 
ENDROOT
BRANCH   1  20
HETATM   20  C7  UNL     1      -4.308  50.920 -10.142  1.00  0.00    -0.014 C 
HETATM   21  C8  UNL     1      -3.380  50.340  -9.061  1.00  0.00     0.010 C 
BRANCH  20  22
HETATM   22  C6  UNL     1      -5.013  49.792 -10.924  1.00  0.00     0.008 C 
BRANCH  22  23
HETATM   23  C5  UNL     1      -6.198  49.093 -10.247  1.00  0.00     0.028 C 
BRANCH  23  24
HETATM   24  C4  UNL     1      -7.021  48.334 -11.255  1.00  0.00    -0.025 C 
HETATM   25  C2  UNL     1      -8.351  48.116 -11.244  1.00  0.00    -0.091 C 
HETATM   26  C1  UNL     1      -9.000  47.292 -12.325  1.00  0.00     0.042 C 
HETATM   27  C3  UNL     1      -9.308  48.642 -10.211  1.00  0.00     0.042 C 
ENDBRANCH  23  24
ENDBRANCH  22  23
ENDBRANCH  20  22
ENDBRANCH   1  20
BRANCH  13  28
HETATM   28  C22 UNL     1       3.266  51.702 -11.432  1.00  0.00     0.012 C 
BRANCH  28  29
HETATM   29  C23 UNL     1       3.222  51.097 -12.836  1.00  0.00     0.027 C 
BRANCH  29  30
HETATM   30  C24 UNL     1       3.803  49.685 -12.846  1.00  0.00     0.164 C 
BRANCH  30  31
HETATM   31  O1  UNL     1       5.017  49.664 -13.585  1.00  0.00    -0.401 OA
HETATM   32  H42 UNL     1       4.824  50.004 -14.476  1.00  0.00     0.209 HD
ENDBRANCH  30  31
ENDBRANCH  29  30
ENDBRANCH  28  29
ENDBRANCH  13  28
TORSDOF 8
ENDMDL
