MODEL 1
REMARK minimizedAffinity -5.15047836
REMARK CNNscore 0.463336438
REMARK CNNaffinity 6.15650034
REMARK  16 active torsions:
REMARK  status: ('A' for Active; 'I' for Inactive)
REMARK    1  A    between atoms: C2_2  and  C3_3 
REMARK    2  A    between atoms: C3_3  and  C4_4 
REMARK    3  A    between atoms: C4_4  and  C5_5 
REMARK    4  A    between atoms: C5_5  and  C6_6 
REMARK    5  A    between atoms: C6_6  and  C7_7 
REMARK    6  A    between atoms: C7_7  and  C8_8 
REMARK    7  A    between atoms: C8_8  and  N1_9 
REMARK    8  A    between atoms: N1_9  and  C9_10 
REMARK    9  A    between atoms: N1_9  and  C11_12 
REMARK   10  A    between atoms: N1_9  and  C13_14 
REMARK   11  A    between atoms: C13_14  and  C14_15 
REMARK   12  A    between atoms: C14_15  and  O1_16 
REMARK   13  A    between atoms: O1_16  and  C15_17 
REMARK   14  A    between atoms: C15_17  and  C16_19 
REMARK   15  A    between atoms: C16_19  and  C17_20 
REMARK   16  A    between atoms: C16_19  and  C22_25 
ROOT
HETATM    1  C14 UNL     1       2.041  52.742  -9.712  1.00  0.00     0.206 C 
ENDROOT
BRANCH   1   2
HETATM    2  C13 UNL     1       0.561  52.952  -9.345  1.00  0.00     0.264 C 
BRANCH   2   3
HETATM    3  N1  UNL     1      -0.474  52.984 -10.541  1.00  0.00    -0.066 N 
BRANCH   3   4
HETATM    4  C8  UNL     1       0.292  53.282 -11.854  1.00  0.00     0.237 C 
BRANCH   4   5
HETATM    5  C7  UNL     1       0.136  52.234 -12.953  1.00  0.00     0.028 C 
BRANCH   5   6
HETATM    6  C6  UNL     1       1.473  51.530 -13.218  1.00  0.00     0.002 C 
BRANCH   6   7
HETATM    7  C5  UNL     1       2.026  51.778 -14.626  1.00  0.00     0.000 C 
BRANCH   7   8
HETATM    8  C4  UNL     1       0.965  51.663 -15.725  1.00  0.00     0.000 C 
BRANCH   8   9
HETATM    9  C3  UNL     1       1.385  52.322 -17.043  1.00  0.00    -0.000 C 
BRANCH   9  10
HETATM   10  C2  UNL     1       0.384  52.109 -18.179  1.00  0.00    -0.005 C 
HETATM   11  C1  UNL     1       0.643  53.066 -19.333  1.00  0.00     0.005 C 
ENDBRANCH   9  10
ENDBRANCH   8   9
ENDBRANCH   7   8
ENDBRANCH   6   7
ENDBRANCH   5   6
ENDBRANCH   4   5
ENDBRANCH   3   4
BRANCH   3  12
HETATM   12  C9  UNL     1      -1.058  51.522 -10.569  1.00  0.00     0.233 C 
HETATM   13  C10 UNL     1      -2.300  51.288  -9.719  1.00  0.00     0.035 C 
ENDBRANCH   3  12
BRANCH   3  14
HETATM   14  C11 UNL     1      -1.612  53.985 -10.239  1.00  0.00     0.233 C 
HETATM   15  C12 UNL     1      -1.176  55.426 -10.053  1.00  0.00     0.035 C 
ENDBRANCH   3  14
ENDBRANCH   2   3
ENDBRANCH   1   2
BRANCH   1  16
HETATM   16  O1  UNL     1       2.861  53.810  -9.199  1.00  0.00    -0.319 OA
BRANCH  16  17
HETATM   17  C15 UNL     1       3.602  54.472 -10.131  1.00  0.00     0.263 C 
HETATM   18  O2  UNL     1       3.633  54.148 -11.311  1.00  0.00    -0.265 OA
BRANCH  17  19
HETATM   19  C16 UNL     1       4.373  55.647  -9.543  1.00  0.00     0.093 C 
BRANCH  19  20
HETATM   20  C17 UNL     1       5.870  55.284  -9.324  1.00  0.00    -0.001 C 
HETATM   21  C18 UNL     1       6.168  53.780  -9.347  1.00  0.00     0.005 C 
HETATM   22  C19 UNL     1       5.783  53.284  -7.959  1.00  0.00     0.000 C 
HETATM   23  C20 UNL     1       5.957  54.482  -7.026  1.00  0.00     0.000 C 
HETATM   24  C21 UNL     1       6.369  55.651  -7.917  1.00  0.00     0.005 C 
ENDBRANCH  19  20
BRANCH  19  25
HETATM   25  C22 UNL     1       3.677  56.218  -8.288  1.00  0.00    -0.001 C 
HETATM   26  C23 UNL     1       3.938  57.700  -8.006  1.00  0.00     0.005 C 
HETATM   27  C24 UNL     1       2.943  58.023  -6.900  1.00  0.00     0.000 C 
HETATM   28  C25 UNL     1       1.735  57.122  -7.156  1.00  0.00     0.000 C 
HETATM   29  C26 UNL     1       2.150  56.147  -8.259  1.00  0.00     0.005 C 
ENDBRANCH  19  25
ENDBRANCH  17  19
ENDBRANCH  16  17
ENDBRANCH   1  16
TORSDOF 16
ENDMDL
