MODEL 1
REMARK minimizedAffinity -9.9301033
REMARK  7 active torsions:
REMARK  status: ('A' for Active; 'I' for Inactive)
REMARK    1  A    between atoms: C2_2  and  C30_34 
REMARK    2  A    between atoms: C3_3  and  C4_4 
REMARK    3  A    between atoms: C4_4  and  C5_5 
REMARK    4  A    between atoms: C5_5  and  C6_6 
REMARK    5  A    between atoms: C6_6  and  C8_8 
REMARK    6  A    between atoms: C15_16  and  O2_17 
REMARK    7  A    between atoms: C30_34  and  O6_36 
ROOT
HETATM    1  C8  UNL     1      -1.498   6.027  12.281  1.00  0.00     0.006 C 
HETATM    2  C9  UNL     1      -1.442   6.479  13.760  1.00  0.00     0.085 C 
HETATM    3  C10 UNL     1      -0.270   7.458  13.789  1.00  0.00     0.141 C 
HETATM    4  O1  UNL     1       0.177   7.906  14.833  1.00  0.00    -0.297 OA
HETATM    5  C11 UNL     1       0.245   7.746  12.370  1.00  0.00     0.055 C 
HETATM    6  C12 UNL     1      -0.641   8.892  11.815  1.00  0.00     0.030 C 
HETATM    7  C13 UNL     1       1.679   8.106  12.080  1.00  0.00     0.010 C 
HETATM    8  C14 UNL     1       2.329   7.720  10.952  1.00  0.00    -0.032 C 
HETATM    9  C15 UNL     1       1.559   6.895   9.897  1.00  0.00     0.149 C 
HETATM   10  C16 UNL     1       0.151   6.364  10.278  1.00  0.00     0.047 C 
HETATM   11  C17 UNL     1      -0.041   6.303  11.793  1.00  0.00    -0.018 C 
HETATM   12  C18 UNL     1       0.924   5.207  12.356  1.00  0.00     0.017 C 
HETATM   13  C19 UNL     1       3.854   8.027  10.690  1.00  0.00    -0.012 C 
HETATM   14  C20 UNL     1       4.005   8.616   9.269  1.00  0.00     0.021 C 
HETATM   15  C21 UNL     1       4.608   6.671  10.789  1.00  0.00     0.021 C 
HETATM   16  C22 UNL     1       6.116   6.781  10.664  1.00  0.00     0.080 C 
HETATM   17  C23 UNL     1       6.670   7.697  11.723  1.00  0.00     0.135 C 
HETATM   18  O3  UNL     1       7.628   7.338  12.411  1.00  0.00    -0.297 OA
HETATM   19  C24 UNL     1       6.075   9.106  11.818  1.00  0.00     0.018 C 
HETATM   20  C25 UNL     1       6.569   9.758  13.134  1.00  0.00     0.023 C 
HETATM   21  C26 UNL     1       6.694   9.952  10.684  1.00  0.00     0.023 C 
HETATM   22  C27 UNL     1       4.490   9.044  11.743  1.00  0.00     0.020 C 
HETATM   23  C28 UNL     1       3.871   8.792  13.131  1.00  0.00     0.090 C 
HETATM   24  C29 UNL     1       2.392   8.991  13.024  1.00  0.00     0.157 C 
HETATM   25  O4  UNL     1       1.811   9.888  13.624  1.00  0.00    -0.293 OA
ENDROOT
BRANCH   1  26
HETATM   26  C6  UNL     1      -2.084   4.614  11.993  1.00  0.00    -0.013 C 
HETATM   27  C7  UNL     1      -1.073   3.464  11.942  1.00  0.00     0.010 C 
BRANCH  26  28
HETATM   28  C5  UNL     1      -3.241   4.265  12.969  1.00  0.00     0.008 C 
BRANCH  28  29
HETATM   29  C4  UNL     1      -4.540   5.045  12.756  1.00  0.00     0.028 C 
BRANCH  29  30
HETATM   30  C3  UNL     1      -5.743   4.168  12.974  1.00  0.00    -0.013 C 
HETATM   31  C2  UNL     1      -6.177   3.189  12.151  1.00  0.00     0.008 C 
HETATM   32  C1  UNL     1      -5.559   2.872  10.820  1.00  0.00     0.055 C 
BRANCH  31  33
HETATM   33  C30 UNL     1      -7.350   2.349  12.510  1.00  0.00     0.171 C 
HETATM   34  O5  UNL     1      -8.404   2.763  12.957  1.00  0.00    -0.646 OA
BRANCH  33  35
HETATM   35  O6  UNL     1      -7.166   1.035  12.299  1.00  0.00    -0.773 OA
HETATM   36  H42 UNL     1      -8.018   0.639  12.575  1.00  0.00     0.167 HD
ENDBRANCH  33  35
ENDBRANCH  31  33
ENDBRANCH  29  30
ENDBRANCH  28  29
ENDBRANCH  26  28
ENDBRANCH   1  26
BRANCH   9  37
HETATM   37  O2  UNL     1       1.381   7.703   8.737  1.00  0.00    -0.391 OA
HETATM   38  H20 UNL     1       1.020   7.138   8.035  1.00  0.00     0.210 HD
ENDBRANCH   9  37
TORSDOF 7
ENDMDL
