MODEL 1
REMARK minimizedAffinity -11.347662
REMARK  6 active torsions:
REMARK  status: ('A' for Active; 'I' for Inactive)
REMARK    1  A    between atoms: N1_2  and  C2_3 
REMARK    2  A    between atoms: C4_5  and  N3_29 
REMARK    3  A    between atoms: C5_7  and  N2_12 
REMARK    4  A    between atoms: C7_9  and  O2_10 
REMARK    5  A    between atoms: C27_32  and  O3_33 
REMARK    6  A    between atoms: C28_36  and  O4_37 
ROOT
HETATM    1  C2  UNL     1      -2.880  48.500 -19.659  1.00  0.00     0.257 C 
HETATM    2  C3  UNL     1      -3.085  49.196 -21.011  1.00  0.00     0.092 C 
HETATM    3  C4  UNL     1      -2.976  50.722 -20.900  1.00  0.00     0.234 C 
HETATM    4  O1  UNL     1      -2.901  51.214 -19.563  1.00  0.00    -0.333 OA
HETATM    5  C5  UNL     1      -1.914  50.618 -18.683  1.00  0.00     0.168 C 
HETATM    6  C6  UNL     1      -2.664  50.725 -17.335  1.00  0.00     0.074 C 
HETATM    7  C7  UNL     1      -1.619  49.111 -18.997  1.00  0.00     0.209 C 
ENDROOT
BRANCH   1   8
HETATM    8  N1  UNL     1      -2.758  47.035 -19.817  1.00  0.00     0.086 N 
HETATM    9  C1  UNL     1      -3.253  46.287 -18.669  1.00  0.00     0.307 C 
HETATM   10  H4  UNL     1      -1.785  46.781 -19.985  1.00  0.00     0.316 HD
ENDBRANCH   1   8
BRANCH   7  11
HETATM   11  O2  UNL     1      -0.538  48.960 -19.939  1.00  0.00    -0.384 OA
HETATM   12  C8  UNL     1      -0.805  48.011 -20.960  1.00  0.00     0.202 C 
ENDBRANCH   7  11
BRANCH   3  13
HETATM   13  N3  UNL     1      -1.971  51.357 -21.745  1.00  0.00    -0.316 N 
HETATM   14  C24 UNL     1      -0.976  52.207 -21.283  1.00  0.00     0.048 A 
HETATM   15  C19 UNL     1      -0.120  52.480 -22.363  1.00  0.00     0.004 A 
HETATM   16  C23 UNL     1      -0.756  52.747 -20.001  1.00  0.00     0.030 A 
HETATM   17  C18 UNL     1      -0.627  51.777 -23.502  1.00  0.00     0.021 A 
HETATM   18  C20 UNL     1       0.984  53.327 -22.130  1.00  0.00     0.014 A 
HETATM   19  C17 UNL     1      -0.320  51.566 -24.854  1.00  0.00     0.040 A 
HETATM   20  C25 UNL     1      -1.771  51.124 -23.071  1.00  0.00     0.077 A 
HETATM   21  C16 UNL     1      -1.086  50.798 -25.766  1.00  0.00     0.019 A 
HETATM   22  C27 UNL     1       0.781  52.025 -25.668  1.00  0.00     0.150 A 
HETATM   23  C15 UNL     1      -2.267  50.144 -25.377  1.00  0.00     0.017 A 
HETATM   24  C28 UNL     1      -0.384  50.850 -27.098  1.00  0.00     0.256 A 
HETATM   25  C14 UNL     1      -3.282  49.365 -25.997  1.00  0.00     0.004 A 
HETATM   26  C26 UNL     1      -2.630  50.267 -24.052  1.00  0.00     0.077 A 
HETATM   27  C9  UNL     1      -4.255  49.068 -25.022  1.00  0.00     0.049 A 
HETATM   28  C13 UNL     1      -3.480  48.928 -27.326  1.00  0.00     0.014 A 
HETATM   29  N2  UNL     1      -3.797  49.586 -23.811  1.00  0.00    -0.308 N 
HETATM   30  C10 UNL     1      -5.431  48.381 -25.386  1.00  0.00     0.030 A 
HETATM   31  C11 UNL     1      -5.598  47.960 -26.709  1.00  0.00     0.002 A 
HETATM   32  C12 UNL     1      -4.633  48.222 -27.668  1.00  0.00     0.001 A 
HETATM   33  N4  UNL     1       0.832  51.681 -26.915  1.00  0.00    -0.340 N 
ATOM     34  H4  UNL     1       1.540  51.924 -27.608  1.00  0.00     0.164 HD
HETATM   35  C21 UNL     1       1.207  53.869 -20.860  1.00  0.00     0.001 A 
HETATM   36  C22 UNL     1       0.346  53.581 -19.811  1.00  0.00     0.002 A 
BRANCH  24  37
HETATM   37  O4  UNL     1      -1.241  51.376 -28.086  1.00  0.00    -0.372 OA
HETATM   38  H26 UNL     1      -0.653  51.969 -28.582  1.00  0.00     0.212 HD
ENDBRANCH  24  37
BRANCH  22  39
HETATM   39  O3  UNL     1       1.741  52.782 -25.150  1.00  0.00    -0.346 OA
HETATM   40  H24 UNL     1       2.377  52.974 -25.857  1.00  0.00     0.219 HD
ENDBRANCH  22  39
ENDBRANCH   3  13
TORSDOF 6
ENDMDL
