MODEL 1
REMARK minimizedAffinity -7.69135857
REMARK CNNscore 0.754169047
REMARK CNNaffinity 7.10807085
REMARK  7 active torsions:
REMARK  status: ('A' for Active; 'I' for Inactive)
REMARK    1  A    between atoms: C4_4  and  C5_5 
REMARK    2  A    between atoms: C5_5  and  O1_6 
REMARK    3  A    between atoms: C5_5  and  C6_7 
REMARK    4  A    between atoms: C6_7  and  C7_8 
REMARK    5  A    between atoms: C7_8  and  C8_10 
REMARK    6  A    between atoms: C8_10  and  C10_12 
REMARK    7  A    between atoms: C18_20  and  O3_21 
ROOT
HETATM    1  C10 UNL     1       0.154  53.081 -11.244  1.00  0.00     0.008 C 
HETATM    2  C11 UNL     1      -0.070  54.507 -10.700  1.00  0.00     0.007 C 
HETATM    3  C12 UNL     1       1.247  55.257 -10.491  1.00  0.00     0.006 C 
HETATM    4  C13 UNL     1       2.251  54.497  -9.596  1.00  0.00     0.003 C 
HETATM    5  C14 UNL     1       3.573  55.317  -9.239  1.00  0.00    -0.035 C 
HETATM    6  C15 UNL     1       4.399  55.650 -10.503  1.00  0.00     0.016 C 
HETATM    7  C16 UNL     1       3.168  56.671  -8.577  1.00  0.00     0.012 C 
HETATM    8  C17 UNL     1       4.321  57.418  -7.911  1.00  0.00     0.033 C 
HETATM    9  C18 UNL     1       5.056  56.556  -6.891  1.00  0.00     0.126 C 
HETATM   10  C19 UNL     1       5.569  55.200  -7.461  1.00  0.00    -0.017 C 
HETATM   11  C20 UNL     1       6.057  54.354  -6.250  1.00  0.00     0.018 C 
HETATM   12  C21 UNL     1       6.802  55.388  -8.368  1.00  0.00     0.018 C 
HETATM   13  C22 UNL     1       4.362  54.474  -8.167  1.00  0.00     0.004 C 
HETATM   14  C23 UNL     1       4.680  53.060  -8.689  1.00  0.00     0.007 C 
HETATM   15  C24 UNL     1       3.403  52.291  -9.051  1.00  0.00     0.011 C 
HETATM   16  C25 UNL     1       2.469  52.997 -10.075  1.00  0.00    -0.029 C 
HETATM   17  C26 UNL     1       3.182  52.947 -11.464  1.00  0.00     0.016 C 
HETATM   18  C27 UNL     1       1.009  52.251 -10.195  1.00  0.00     0.002 C 
HETATM   19  C28 UNL     1       0.325  52.132  -8.813  1.00  0.00     0.190 C 
HETATM   20  O4  UNL     1       0.721  50.886  -8.238  1.00  0.00    -0.321 OA
HETATM   21  C29 UNL     1       1.177  50.060  -9.212  1.00  0.00     0.259 C 
HETATM   22  O5  UNL     1       1.528  48.908  -9.026  1.00  0.00    -0.265 OA
HETATM   23  C30 UNL     1       1.131  50.755 -10.538  1.00  0.00     0.124 C 
ENDROOT
BRANCH   1  24
HETATM   24  C8  UNL     1      -1.181  52.523 -11.864  1.00  0.00     0.056 C 
HETATM   25  C9  UNL     1      -2.047  51.673 -10.945  1.00  0.00     0.018 C 
BRANCH  24  26
HETATM   26  C7  UNL     1      -0.956  51.864 -13.243  1.00  0.00     0.133 C 
HETATM   27  O2  UNL     1      -1.754  51.039 -13.697  1.00  0.00    -0.297 OA
BRANCH  26  28
HETATM   28  C6  UNL     1       0.295  52.198 -14.038  1.00  0.00     0.114 C 
BRANCH  28  29
HETATM   29  C5  UNL     1       1.258  51.028 -14.224  1.00  0.00     0.148 C 
BRANCH  29  30
HETATM   30  C4  UNL     1       2.627  51.418 -14.707  1.00  0.00     0.007 C 
HETATM   31  C2  UNL     1       2.962  52.078 -15.834  1.00  0.00    -0.089 C 
HETATM   32  C1  UNL     1       2.003  52.583 -16.876  1.00  0.00     0.042 C 
HETATM   33  C3  UNL     1       4.409  52.362 -16.148  1.00  0.00     0.042 C 
ENDBRANCH  29  30
BRANCH  29  34
HETATM   34  O1  UNL     1       0.718  50.096 -15.155  1.00  0.00    -0.391 OA
HETATM   35  H9  UNL     1       1.377  49.382 -15.244  1.00  0.00     0.210 HD
ENDBRANCH  29  34
ENDBRANCH  28  29
ENDBRANCH  26  28
ENDBRANCH  24  26
ENDBRANCH   1  24
BRANCH   9  36
HETATM   36  O3  UNL     1       6.114  57.324  -6.319  1.00  0.00    -0.395 OA
HETATM   37  H30 UNL     1       6.679  57.649  -7.038  1.00  0.00     0.210 HD
ENDBRANCH   9  36
TORSDOF 7
ENDMDL
