MODEL 1
REMARK minimizedAffinity -7.75789833
REMARK CNNscore 0.407913327
REMARK CNNaffinity 6.41942167
REMARK  9 active torsions:
REMARK  status: ('A' for Active; 'I' for Inactive)
REMARK    1  A    between atoms: O1_2  and  C2_3 
REMARK    2  A    between atoms: C2_3  and  C3_4 
REMARK    3  A    between atoms: C3_4  and  N1_5 
REMARK       I    between atoms: N1_5  and  C4_6 
REMARK    4  A    between atoms: C4_6  and  C5_8 
REMARK    5  A    between atoms: C5_8  and  C7_10 
REMARK    6  A    between atoms: C15_20  and  C16_21 
REMARK    7  A    between atoms: C16_21  and  O3_22 
REMARK    8  A    between atoms: O3_22  and  C17_23 
REMARK    9  A    between atoms: C26_34  and  O4_35 
ROOT
HETATM    1  C7  UNL     1      -3.153   8.933  15.098  1.00  0.00     0.027 C 
HETATM    2  C8  UNL     1      -4.202   9.775  15.836  1.00  0.00     0.009 C 
HETATM    3  C9  UNL     1      -3.538  10.958  16.535  1.00  0.00     0.010 C 
HETATM    4  C10 UNL     1      -2.444  10.569  17.563  1.00  0.00    -0.033 C 
HETATM    5  C11 UNL     1      -3.150   9.963  18.809  1.00  0.00     0.016 C 
HETATM    6  C12 UNL     1      -1.756  11.903  18.052  1.00  0.00     0.058 C 
HETATM    7  C13 UNL     1      -0.275  11.795  18.127  1.00  0.00     0.008 A 
HETATM    8  C14 UNL     1       0.493  10.972  17.342  1.00  0.00     0.027 A 
HETATM    9  N2  UNL     1       1.850  11.035  17.560  1.00  0.00    -0.354 N 
ATOM     10  H2  UNL     1       2.550  10.470  17.079  1.00  0.00     0.166 HD
HETATM   11  C15 UNL     1       2.105  11.941  18.487  1.00  0.00     0.076 A 
HETATM   12  S1  UNL     1       0.711  12.707  19.165  1.00  0.00    -0.077 SA
HETATM   13  C23 UNL     1      -0.119  10.038  16.347  1.00  0.00     0.040 C 
HETATM   14  C24 UNL     1      -0.247  10.715  14.986  1.00  0.00     0.017 C 
HETATM   15  C25 UNL     1      -1.439   9.478  16.977  1.00  0.00     0.033 C 
HETATM   16  C26 UNL     1      -2.106   8.389  16.094  1.00  0.00     0.128 C 
ENDROOT
BRANCH   1  17
HETATM   17  C5  UNL     1      -3.828   7.869  14.178  1.00  0.00     0.080 C 
HETATM   18  C6  UNL     1      -4.859   8.407  13.185  1.00  0.00     0.020 C 
BRANCH  17  19
HETATM   19  C4  UNL     1      -4.423   6.723  15.006  1.00  0.00     0.222 C 
HETATM   20  N1  UNL     1      -5.630   7.025  15.602  1.00  0.00    -0.359 N 
HETATM   21  H8  UNL     1      -6.149   7.811  15.230  1.00  0.00     0.162 HD
HETATM   22  O2  UNL     1      -3.897   5.618  15.111  1.00  0.00    -0.273 OA
BRANCH  20  23
HETATM   23  C3  UNL     1      -6.415   5.996  16.262  1.00  0.00     0.148 C 
BRANCH  23  24
HETATM   24  C2  UNL     1      -7.813   5.876  15.647  1.00  0.00     0.186 C 
BRANCH  24  25
HETATM   25  O1  UNL     1      -7.791   5.047  14.476  1.00  0.00    -0.394 OA
HETATM   26  C1  UNL     1      -7.952   5.785  13.272  1.00  0.00     0.201 C 
ENDBRANCH  24  25
ENDBRANCH  23  24
ENDBRANCH  20  23
ENDBRANCH  17  19
ENDBRANCH   1  17
BRANCH  16  27
HETATM   27  O4  UNL     1      -2.739   7.449  16.969  1.00  0.00    -0.395 OA
HETATM   28  H35 UNL     1      -2.033   6.976  17.442  1.00  0.00     0.210 HD
ENDBRANCH  16  27
BRANCH  11  29
HETATM   29  C16 UNL     1       3.478  12.284  18.983  1.00  0.00     0.240 C 
BRANCH  29  30
HETATM   30  O3  UNL     1       4.116  11.088  19.438  1.00  0.00    -0.345 OA
BRANCH  30  31
HETATM   31  C17 UNL     1       4.108  10.763  20.763  1.00  0.00     0.070 A 
HETATM   32  C18 UNL     1       4.905  11.315  21.767  1.00  0.00     0.037 A 
HETATM   33  C19 UNL     1       4.783  10.870  23.088  1.00  0.00     0.004 A 
HETATM   34  C20 UNL     1       3.865   9.872  23.413  1.00  0.00     0.024 A 
HETATM   35  C21 UNL     1       3.071   9.321  22.412  1.00  0.00     0.036 A 
HETATM   36 CL1  UNL     1       1.936   8.088  22.805  1.00  0.00    -0.084 Cl
HETATM   37  C22 UNL     1       3.191   9.761  21.096  1.00  0.00     0.060 A 
ENDBRANCH  30  31
ENDBRANCH  29  30
ENDBRANCH  11  29
TORSDOF 9
ENDMDL
