MODEL 1
REMARK minimizedAffinity -7.71364355
REMARK CNNscore 0.415328979
REMARK CNNaffinity 6.40672159
REMARK  5 active torsions:
REMARK  status: ('A' for Active; 'I' for Inactive)
REMARK    1  A    between atoms: C2_2  and  C3_3 
REMARK    2  A    between atoms: C6_6  and  C7_7 
REMARK    3  A    between atoms: C7_7  and  O1_8 
REMARK    4  A    between atoms: C7_7  and  C8_9 
REMARK    5  A    between atoms: C26_32  and  O6_33 
ROOT
HETATM    1  C3  UNL     1      -0.497  16.113  -4.623  1.00  0.00     0.008 C 
HETATM    2  C4  UNL     1      -0.139  16.354  -3.170  1.00  0.00    -0.023 C 
HETATM    3  C5  UNL     1      -0.059  15.441  -2.187  1.00  0.00     0.005 C 
HETATM    4  C6  UNL     1       0.405  15.778  -0.790  1.00  0.00     0.187 C 
HETATM    5  O2  UNL     1       1.834  15.524  -0.766  1.00  0.00    -0.308 OA
HETATM    6  C12 UNL     1       2.629  16.630  -0.929  1.00  0.00     0.276 C 
HETATM    7  O3  UNL     1       2.211  17.774  -1.066  1.00  0.00    -0.264 OA
HETATM    8  C13 UNL     1       4.132  16.271  -0.762  1.00  0.00     0.095 C 
HETATM    9  C14 UNL     1       5.016  17.420  -1.303  1.00  0.00     0.036 C 
HETATM   10  C15 UNL     1       4.289  16.324   0.745  1.00  0.00     0.003 C 
HETATM   11  C16 UNL     1       4.838  15.495   1.632  1.00  0.00     0.072 C 
HETATM   12  C17 UNL     1       5.519  14.220   1.429  1.00  0.00     0.245 C 
HETATM   13  O4  UNL     1       6.025  13.667   2.405  1.00  0.00    -0.268 OA
HETATM   14  N1  UNL     1       5.592  13.633   0.221  1.00  0.00    -0.320 N 
HETATM   15  C18 UNL     1       5.140  13.893  -1.048  1.00  0.00     0.098 C 
HETATM   16  C19 UNL     1       4.488  14.976  -1.504  1.00  0.00     0.045 C 
HETATM   17  C20 UNL     1       4.060  14.987  -2.957  1.00  0.00     0.194 C 
HETATM   18  O5  UNL     1       3.473  15.956  -3.418  1.00  0.00    -0.287 OA
HETATM   19  C21 UNL     1       4.371  13.863  -3.861  1.00  0.00     0.046 A 
HETATM   20  C22 UNL     1       5.154  12.823  -3.382  1.00  0.00     0.032 A 
HETATM   21  C23 UNL     1       5.602  11.800  -4.234  1.00  0.00     0.026 A 
HETATM   22  C24 UNL     1       5.290  11.815  -5.596  1.00  0.00    -0.027 A 
HETATM   23  C25 UNL     1       5.807  10.741  -6.510  1.00  0.00     0.051 C 
HETATM   24  C26 UNL     1       4.482  12.846  -6.078  1.00  0.00     0.086 A 
HETATM   25  C27 UNL     1       3.979  13.838  -5.214  1.00  0.00     0.059 A 
HETATM   26  C28 UNL     1       2.973  14.751  -5.805  1.00  0.00     0.163 C 
HETATM   27  O7  UNL     1       3.274  15.339  -6.842  1.00  0.00    -0.292 OA
HETATM   28  C29 UNL     1       1.562  14.689  -5.251  1.00  0.00     0.084 C 
HETATM   29  C30 UNL     1       0.801  16.001  -5.456  1.00  0.00     0.016 C 
HETATM   30  C31 UNL     1       5.513  12.764  -1.965  1.00  0.00     0.210 C 
HETATM   31  O8  UNL     1       6.123  11.793  -1.521  1.00  0.00    -0.285 OA
HETATM   32  H24 UNL     1       6.094  12.743   0.297  1.00  0.00     0.169 HD
ENDROOT
BRANCH   4  33
HETATM   33  C7  UNL     1      -0.243  14.881   0.308  1.00  0.00     0.174 C 
BRANCH  33  34
HETATM   34  O1  UNL     1      -0.624  13.636  -0.284  1.00  0.00    -0.389 OA
HETATM   35  H11 UNL     1      -1.260  13.851  -0.987  1.00  0.00     0.210 HD
ENDBRANCH  33  34
BRANCH  33  36
HETATM   36  C8  UNL     1       0.658  14.667   1.505  1.00  0.00     0.009 C 
HETATM   37  C9  UNL     1       0.410  14.118   2.713  1.00  0.00    -0.089 C 
HETATM   38  C10 UNL     1       1.509  13.987   3.736  1.00  0.00     0.042 C 
HETATM   39  C11 UNL     1      -0.928  13.599   3.161  1.00  0.00     0.042 C 
ENDBRANCH  33  36
ENDBRANCH   4  33
BRANCH   1  40
HETATM   40  C2  UNL     1      -1.489  14.951  -4.839  1.00  0.00     0.004 C 
HETATM   41  C1  UNL     1      -1.516  14.447  -6.277  1.00  0.00     0.006 C 
ENDBRANCH   1  40
BRANCH  24  42
HETATM   42  O6  UNL     1       4.199  12.846  -7.421  1.00  0.00    -0.359 OA
HETATM   43  H29 UNL     1       3.896  13.745  -7.682  1.00  0.00     0.217 HD
ENDBRANCH  24  42
TORSDOF 5
ENDMDL
