MODEL 1
REMARK minimizedAffinity -6.68392515
REMARK CNNscore 0.474834353
REMARK CNNaffinity 6.34948349
REMARK  9 active torsions:
REMARK  status: ('A' for Active; 'I' for Inactive)
REMARK       I    between atoms: N1_1  and  C1_2 
REMARK       I    between atoms: C1_2  and  N2_3 
REMARK    1  A    between atoms: N3_4  and  C2_6 
REMARK    2  A    between atoms: C11_16  and  S1_17 
REMARK    3  A    between atoms: S1_17  and  O4_20 
REMARK    4  A    between atoms: C18_27  and  C19_28 
REMARK    5  A    between atoms: C19_28  and  C20_29 
REMARK    6  A    between atoms: C20_29  and  C21_30 
REMARK    7  A    between atoms: C21_30  and  O5_31 
REMARK    8  A    between atoms: C22_33  and  C23_34 
REMARK    9  A    between atoms: C26_37  and  O7_38 
ROOT
HETATM    1  C2  UNL     1     -12.760  11.713  -6.568  1.00  0.00     0.263 C 
HETATM    2  O1  UNL     1     -13.887  10.784  -6.429  1.00  0.00    -0.322 OA
HETATM    3  C3  UNL     1     -14.028  10.226  -5.179  1.00  0.00     0.071 C 
HETATM    4  C4  UNL     1     -12.988   9.589  -4.507  1.00  0.00     0.037 C 
HETATM    5  C5  UNL     1     -13.135   9.269  -3.155  1.00  0.00     0.010 C 
HETATM    6  C6  UNL     1     -14.329   9.563  -2.482  1.00  0.00    -0.058 C 
HETATM    7  C7  UNL     1     -15.411  10.073  -3.207  1.00  0.00     0.010 C 
HETATM    8  C8  UNL     1     -15.264  10.393  -4.557  1.00  0.00     0.037 C 
HETATM    9  C9  UNL     1     -14.416   9.426  -0.981  1.00  0.00     0.040 C 
HETATM   10  C10 UNL     1     -13.594  10.501  -0.238  1.00  0.00     0.027 C 
HETATM   11  C11 UNL     1     -13.982  11.973  -0.547  1.00  0.00     0.130 C 
HETATM   12  C12 UNL     1     -12.745  12.916  -0.472  1.00  0.00     0.037 C 
HETATM   13  C13 UNL     1     -12.186  13.177   0.920  1.00  0.00    -0.014 C 
HETATM   14  C14 UNL     1     -12.004  14.438   1.371  1.00  0.00    -0.050 C 
HETATM   15  C15 UNL     1     -12.610  15.597   0.624  1.00  0.00     0.042 C 
HETATM   16  C16 UNL     1     -12.063  15.440  -0.796  1.00  0.00     0.001 C 
HETATM   17  C17 UNL     1     -10.512  15.241  -0.773  1.00  0.00     0.037 C 
HETATM   18  C18 UNL     1      -9.685  15.974   0.332  1.00  0.00     0.123 C 
HETATM   19  O6  UNL     1     -10.218  15.997   1.671  1.00  0.00    -0.371 OA
HETATM   20  C22 UNL     1     -10.814  14.810   2.226  1.00  0.00     0.183 C 
HETATM   21  C29 UNL     1     -12.876  14.227  -1.369  1.00  0.00     0.032 C 
HETATM   22  C30 UNL     1     -12.687  13.911  -2.850  1.00  0.00    -0.053 C 
HETATM   23  C31 UNL     1     -13.783  14.041  -3.720  1.00  0.00     0.008 C 
HETATM   24  C32 UNL     1     -13.769  13.447  -4.984  1.00  0.00     0.012 C 
HETATM   25  C33 UNL     1     -12.661  12.696  -5.393  1.00  0.00    -0.010 C 
HETATM   26  C34 UNL     1     -11.502  12.723  -4.606  1.00  0.00     0.012 C 
HETATM   27  C35 UNL     1     -11.518  13.320  -3.344  1.00  0.00     0.008 C 
ENDROOT
BRANCH   1  28
HETATM   28  N3  UNL     1     -12.639  12.426  -7.850  1.00  0.00    -0.341 N 
HETATM   29  C1  UNL     1     -11.610  12.253  -8.584  1.00  0.00     0.124 C 
HETATM   30  N1  UNL     1     -10.528  11.464  -8.401  1.00  0.00    -0.279 NA
HETATM   31  N2  UNL     1     -11.496  12.923  -9.751  1.00  0.00    -0.279 NA
HETATM   32  H1  UNL     1     -10.469  11.125  -7.441  1.00  0.00     0.126 HD
HETATM   33  H2  UNL     1      -9.669  11.938  -8.655  1.00  0.00     0.126 HD
HETATM   34  H3  UNL     1     -12.369  13.392  -9.974  1.00  0.00     0.126 HD
HETATM   35  H4  UNL     1     -11.216  12.327 -10.521  1.00  0.00     0.126 HD
ATOM     36  H3  UNL     1     -13.379  13.059  -8.153  1.00  0.00     0.164 HD
ENDBRANCH   1  28
BRANCH  11  37
HETATM   37  S1  UNL     1     -15.329  12.545   0.518  1.00  0.00     0.099 S 
HETATM   38  O2  UNL     1     -16.495  11.697   0.380  1.00  0.00    -0.601 OA
HETATM   39  O3  UNL     1     -14.828  12.963   1.810  1.00  0.00    -0.601 OA
BRANCH  37  40
HETATM   40  O4  UNL     1     -15.705  13.904  -0.275  1.00  0.00    -0.295 OA
HETATM   41  H15 UNL     1     -16.684  13.983  -0.275  1.00  0.00     0.232 HD
ENDBRANCH  37  40
ENDBRANCH  11  37
BRANCH  18  42
HETATM   42  C19 UNL     1      -9.432  17.457  -0.008  1.00  0.00     0.034 C 
BRANCH  42  43
HETATM   43  C20 UNL     1      -8.438  18.163   0.918  1.00  0.00     0.028 C 
BRANCH  43  44
HETATM   44  C21 UNL     1      -7.393  18.964   0.144  1.00  0.00     0.164 C 
BRANCH  44  45
HETATM   45  O5  UNL     1      -7.346  18.588  -1.224  1.00  0.00    -0.401 OA
HETATM   46  H30 UNL     1      -7.528  17.632  -1.287  1.00  0.00     0.209 HD
ENDBRANCH  44  45
ENDBRANCH  43  44
ENDBRANCH  42  43
ENDBRANCH  18  42
BRANCH  20  47
HETATM   47  C23 UNL     1     -11.215  15.042   3.675  1.00  0.00    -0.025 A 
HETATM   48  C24 UNL     1     -10.277  15.014   4.721  1.00  0.00     0.013 A 
HETATM   49  C25 UNL     1     -10.670  15.264   6.038  1.00  0.00     0.037 A 
HETATM   50  C26 UNL     1     -12.000  15.549   6.319  1.00  0.00     0.065 A 
HETATM   51  C27 UNL     1     -12.950  15.589   5.302  1.00  0.00     0.037 A 
HETATM   52  C28 UNL     1     -12.556  15.336   3.985  1.00  0.00     0.013 A 
BRANCH  50  53
HETATM   53  O7  UNL     1     -12.341  15.794   7.616  1.00  0.00    -0.361 OA
HETATM   54  H34 UNL     1     -13.290  15.997   7.651  1.00  0.00     0.217 HD
ENDBRANCH  50  53
ENDBRANCH  20  47
TORSDOF 9
ENDMDL
