MODEL 1
REMARK minimizedAffinity -7.02968836
REMARK CNNscore 0.632836938
REMARK CNNaffinity 5.81557512
REMARK  13 active torsions:
REMARK  status: ('A' for Active; 'I' for Inactive)
REMARK    1  A    between atoms: C2_2  and  C3_3 
REMARK    2  A    between atoms: C3_3  and  C5_5 
REMARK    3  A    between atoms: C5_5  and  N1_6 
REMARK    4  A    between atoms: C5_5  and  C31_39 
REMARK       I    between atoms: N1_6  and  C6_7 
REMARK    5  A    between atoms: C6_7  and  C7_9 
REMARK    6  A    between atoms: C7_9  and  C8_10 
REMARK    7  A    between atoms: C8_10  and  C9_11 
REMARK    8  A    between atoms: C9_11  and  O3_13 
REMARK    9  A    between atoms: O3_13  and  C10_14 
REMARK   10  A    between atoms: C10_14  and  C11_15 
REMARK   11  A    between atoms: C11_15  and  C12_17 
REMARK   12  A    between atoms: C12_17  and  O5_18 
REMARK   13  A    between atoms: C31_39  and  O9_41 
ROOT
HETATM    1  C12 UNL     1       1.408  11.425  17.900  1.00  0.00     0.128 C 
HETATM    2  C13 UNL     1       0.112  11.804  18.655  1.00  0.00     0.047 C 
HETATM    3  C14 UNL     1       0.559  12.435  19.988  1.00  0.00     0.009 C 
HETATM    4  C15 UNL     1       2.076  12.549  19.878  1.00  0.00     0.002 C 
HETATM    5  C16 UNL     1       2.883  12.695  21.175  1.00  0.00     0.003 C 
HETATM    6  C17 UNL     1       2.450  13.942  21.958  1.00  0.00     0.010 C 
HETATM    7  C18 UNL     1       3.272  14.119  23.229  1.00  0.00     0.035 C 
HETATM    8  C19 UNL     1       4.758  14.127  22.940  1.00  0.00    -0.067 C 
HETATM    9  C20 UNL     1       5.511  15.144  23.391  1.00  0.00     0.053 C 
HETATM   10  C21 UNL     1       6.984  15.150  23.233  1.00  0.00     0.149 C 
HETATM   11  O6  UNL     1       7.625  16.145  23.555  1.00  0.00    -0.293 OA
HETATM   12  C22 UNL     1       7.631  13.883  22.748  1.00  0.00     0.084 C 
HETATM   13  C23 UNL     1       6.768  13.255  21.661  1.00  0.00     0.022 C 
HETATM   14  C24 UNL     1       5.305  12.950  22.107  1.00  0.00    -0.009 C 
HETATM   15  C25 UNL     1       5.297  11.686  22.996  1.00  0.00     0.021 C 
HETATM   16  C26 UNL     1       4.400  12.790  20.830  1.00  0.00     0.072 C 
HETATM   17  C27 UNL     1       4.801  11.664  19.852  1.00  0.00     0.133 C 
HETATM   18  O7  UNL     1       5.801  10.962  20.004  1.00  0.00    -0.297 OA
HETATM   19  C28 UNL     1       3.937  11.496  18.608  1.00  0.00     0.091 C 
HETATM   20  C29 UNL     1       2.475  11.312  19.028  1.00  0.00     0.005 C 
HETATM   21  C30 UNL     1       2.342   9.980  19.804  1.00  0.00     0.019 C 
ENDROOT
BRANCH   1  22
HETATM   22  C11 UNL     1       1.296  10.251  16.899  1.00  0.00     0.185 C 
HETATM   23  O4  UNL     1       1.554   9.103  17.298  1.00  0.00    -0.292 OA
BRANCH  22  24
HETATM   24  C10 UNL     1       0.912  10.531  15.445  1.00  0.00     0.260 C 
BRANCH  24  25
HETATM   25  O3  UNL     1      -0.376  11.132  15.313  1.00  0.00    -0.314 OA
BRANCH  25  26
HETATM   26  C9  UNL     1      -1.361  10.309  14.855  1.00  0.00     0.259 C 
HETATM   27  O2  UNL     1      -2.559  10.503  14.994  1.00  0.00    -0.265 OA
BRANCH  26  28
HETATM   28  C8  UNL     1      -0.737   9.161  14.114  1.00  0.00     0.120 C 
BRANCH  28  29
HETATM   29  C7  UNL     1      -1.191   9.096  12.659  1.00  0.00     0.112 C 
BRANCH  29  30
HETATM   30  C6  UNL     1      -0.378   8.061  11.912  1.00  0.00     0.218 C 
HETATM   31  N1  UNL     1       0.764   8.569  11.329  1.00  0.00    -0.346 N 
HETATM   32  H11 UNL     1       0.771   9.572  11.166  1.00  0.00     0.163 HD
HETATM   33  O1  UNL     1      -0.696   6.876  11.849  1.00  0.00    -0.274 OA
BRANCH  31  34
HETATM   34  C5  UNL     1       1.509   7.760  10.350  1.00  0.00     0.186 C 
BRANCH  34  35
HETATM   35  C3  UNL     1       0.738   7.660   9.012  1.00  0.00     0.014 C 
HETATM   36  C4  UNL     1      -0.317   8.769   8.915  1.00  0.00     0.012 C 
BRANCH  35  37
HETATM   37  C2  UNL     1       1.666   7.654   7.774  1.00  0.00     0.002 C 
HETATM   38  C1  UNL     1       2.955   8.439   7.983  1.00  0.00     0.005 C 
ENDBRANCH  35  37
ENDBRANCH  34  35
BRANCH  34  39
HETATM   39  C31 UNL     1       1.839   6.380  10.949  1.00  0.00     0.163 C 
HETATM   40  O8  UNL     1       1.602   5.293  10.447  1.00  0.00    -0.648 OA
BRANCH  39  41
HETATM   41  O9  UNL     1       2.386   6.437  12.187  1.00  0.00    -0.775 OA
HETATM   42  H43 UNL     1       2.546   5.493  12.407  1.00  0.00     0.167 HD
ENDBRANCH  39  41
ENDBRANCH  34  39
ENDBRANCH  31  34
ENDBRANCH  29  30
ENDBRANCH  28  29
ENDBRANCH  26  28
ENDBRANCH  25  26
ENDBRANCH  24  25
ENDBRANCH  22  24
ENDBRANCH   1  22
BRANCH   1  43
HETATM   43  O5  UNL     1       1.735  12.575  17.084  1.00  0.00    -0.381 OA
HETATM   44  H18 UNL     1       2.216  12.236  16.301  1.00  0.00     0.211 HD
ENDBRANCH   1  43
TORSDOF 13
ENDMDL
