MODEL 1
REMARK minimizedAffinity -7.88490915
REMARK CNNscore 0.765769064
REMARK CNNaffinity 7.26940155
REMARK  11 active torsions:
REMARK  status: ('A' for Active; 'I' for Inactive)
REMARK    1  A    between atoms: C2_2  and  C4_4 
REMARK    2  A    between atoms: C4_4  and  C6_6 
REMARK    3  A    between atoms: C7_7  and  C8_8 
REMARK    4  A    between atoms: C8_8  and  C10_10 
REMARK    5  A    between atoms: C19_19  and  O1_20 
REMARK    6  A    between atoms: O1_20  and  C20_21 
REMARK    7  A    between atoms: C21_23  and  C22_24 
REMARK    8  A    between atoms: C22_24  and  O3_25 
REMARK    9  A    between atoms: C23_26  and  O4_27 
REMARK   10  A    between atoms: C24_28  and  O5_29 
REMARK   11  A    between atoms: C25_30  and  O6_31 
ROOT
HETATM    1  C10 UNL     1       0.803  54.318 -11.040  1.00  0.00     0.001 C 
HETATM    2  C11 UNL     1       0.036  55.220 -10.040  1.00  0.00     0.006 C 
HETATM    3  C12 UNL     1       0.741  55.109  -8.692  1.00  0.00     0.009 C 
HETATM    4  C13 UNL     1       1.971  54.209  -8.892  1.00  0.00     0.036 C 
HETATM    5  C14 UNL     1       3.174  54.552  -7.975  1.00  0.00     0.123 C 
HETATM    6  C15 UNL     1       2.775  54.632  -6.515  1.00  0.00     0.014 C 
HETATM    7  C16 UNL     1       3.796  54.833  -5.675  1.00  0.00     0.014 C 
HETATM    8  C17 UNL     1       5.142  54.893  -6.365  1.00  0.00     0.124 C 
HETATM    9  C18 UNL     1       6.277  55.018  -5.344  1.00  0.00     0.078 C 
HETATM   10  C19 UNL     1       6.312  56.391  -4.666  1.00  0.00     0.128 C 
HETATM   11  C26 UNL     1       6.263  57.552  -5.669  1.00  0.00     0.033 C 
HETATM   12  C27 UNL     1       5.168  57.401  -6.731  1.00  0.00     0.015 C 
HETATM   13  C28 UNL     1       5.201  56.025  -7.449  1.00  0.00     0.001 C 
HETATM   14  C29 UNL     1       6.524  55.927  -8.260  1.00  0.00     0.019 C 
HETATM   15  C30 UNL     1       3.918  55.860  -8.378  1.00  0.00     0.039 C 
HETATM   16  C31 UNL     1       4.205  55.907  -9.891  1.00  0.00     0.010 C 
HETATM   17  C32 UNL     1       2.964  55.645 -10.741  1.00  0.00     0.010 C 
HETATM   18  C33 UNL     1       2.250  54.298 -10.415  1.00  0.00    -0.033 C 
HETATM   19  C34 UNL     1       3.130  53.141 -10.906  1.00  0.00     0.016 C 
HETATM   20  O7  UNL     1       5.256  53.627  -7.061  1.00  0.00    -0.223 OA
HETATM   21  O8  UNL     1       4.156  53.480  -8.079  1.00  0.00    -0.224 OA
ENDROOT
BRANCH  10  22
HETATM   22  O1  UNL     1       7.550  56.468  -3.949  1.00  0.00    -0.353 OA
BRANCH  22  23
HETATM   23  C20 UNL     1       8.576  55.623  -4.484  1.00  0.00     0.292 C 
HETATM   24  O2  UNL     1       9.293  56.264  -5.537  1.00  0.00    -0.348 OA
HETATM   25  C21 UNL     1      10.448  57.032  -5.162  1.00  0.00     0.179 C 
HETATM   26  C23 UNL     1      11.463  56.213  -4.327  1.00  0.00     0.180 C 
HETATM   27  C24 UNL     1      10.881  54.911  -3.748  1.00  0.00     0.183 C 
HETATM   28  C25 UNL     1       9.451  55.152  -3.295  1.00  0.00     0.204 C 
BRANCH  25  29
HETATM   29  C22 UNL     1      10.064  58.365  -4.491  1.00  0.00     0.198 C 
BRANCH  29  30
HETATM   30  O3  UNL     1      10.118  59.428  -5.446  1.00  0.00    -0.398 OA
HETATM   31  H33 UNL     1       9.756  60.215  -5.009  1.00  0.00     0.209 HD
ENDBRANCH  29  30
ENDBRANCH  25  29
BRANCH  26  32
HETATM   32  O4  UNL     1      12.600  55.863  -5.140  1.00  0.00    -0.390 OA
HETATM   33  H35 UNL     1      12.326  55.050  -5.615  1.00  0.00     0.210 HD
ENDBRANCH  26  32
BRANCH  27  34
HETATM   34  O5  UNL     1      10.953  53.867  -4.731  1.00  0.00    -0.390 OA
HETATM   35  H37 UNL     1      10.831  53.019  -4.264  1.00  0.00     0.210 HD
ENDBRANCH  27  34
BRANCH  28  36
HETATM   36  O6  UNL     1       9.457  56.126  -2.234  1.00  0.00    -0.388 OA
HETATM   37  H39 UNL     1       8.540  56.473  -2.217  1.00  0.00     0.210 HD
ENDBRANCH  28  36
ENDBRANCH  22  23
ENDBRANCH  10  22
BRANCH   1  38
HETATM   38  C8  UNL     1       0.045  52.961 -11.270  1.00  0.00     0.008 C 
HETATM   39  C9  UNL     1       0.094  51.995 -10.076  1.00  0.00     0.014 C 
BRANCH  38  40
HETATM   40  C7  UNL     1       0.558  52.152 -12.458  1.00  0.00    -0.026 C 
HETATM   41  C6  UNL     1       0.339  52.442 -13.754  1.00  0.00    -0.026 C 
BRANCH  41  42
HETATM   42  C4  UNL     1       0.802  51.719 -15.005  1.00  0.00     0.007 C 
HETATM   43  C5  UNL     1       1.647  50.511 -14.575  1.00  0.00     0.014 C 
BRANCH  42  44
HETATM   44  C2  UNL     1       1.479  52.496 -16.171  1.00  0.00    -0.015 C 
HETATM   45  C1  UNL     1       0.911  52.235 -17.568  1.00  0.00     0.010 C 
HETATM   46  C3  UNL     1       3.003  52.338 -16.171  1.00  0.00     0.010 C 
ENDBRANCH  42  44
ENDBRANCH  41  42
ENDBRANCH  38  40
ENDBRANCH   1  38
TORSDOF 11
ENDMDL
