MODEL 1
REMARK minimizedAffinity -9.88514709
REMARK CNNscore 0.430883378
REMARK CNNaffinity 6.29801178
REMARK  11 active torsions:
REMARK  status: ('A' for Active; 'I' for Inactive)
REMARK    1  A    between atoms: C3_3  and  O1_4 
REMARK    2  A    between atoms: N1_14  and  O2_16 
REMARK    3  A    between atoms: O2_16  and  C13_17 
REMARK    4  A    between atoms: C13_17  and  C14_18 
REMARK       I    between atoms: C14_18  and  N2_20 
REMARK    5  A    between atoms: N2_20  and  C15_21 
REMARK    6  A    between atoms: C15_21  and  C16_22 
REMARK    7  A    between atoms: C15_21  and  C17_25 
REMARK    8  A    between atoms: C16_22  and  O5_24 
REMARK    9  A    between atoms: C17_25  and  O6_26 
REMARK   10  A    between atoms: C17_25  and  C18_27 
REMARK   11  A    between atoms: C22_31  and  N3_32 
ROOT
HETATM    1  C1  UNL     1       0.319  55.587 -25.346  1.00  0.00     0.015 C 
HETATM    2  C2  UNL     1       0.224  54.437 -25.685  1.00  0.00    -0.078 C 
HETATM    3  C3  UNL     1       0.117  53.029 -26.095  1.00  0.00     0.128 C 
HETATM    4  C4  UNL     1      -0.734  52.868 -27.367  1.00  0.00     0.052 C 
HETATM    5  C5  UNL     1      -1.371  51.472 -27.278  1.00  0.00     0.010 C 
HETATM    6  C6  UNL     1      -0.955  50.880 -25.919  1.00  0.00     0.002 C 
HETATM    7  C7  UNL     1      -1.982  49.928 -25.267  1.00  0.00    -0.004 C 
HETATM    8  C8  UNL     1      -2.297  48.691 -26.135  1.00  0.00     0.010 C 
HETATM    9  C9  UNL     1      -3.764  48.583 -26.542  1.00  0.00     0.035 C 
HETATM   10  C10 UNL     1      -4.722  48.717 -25.382  1.00  0.00    -0.069 C 
HETATM   11  C11 UNL     1      -5.903  48.076 -25.406  1.00  0.00     0.030 C 
HETATM   12  C12 UNL     1      -6.908  48.279 -24.333  1.00  0.00     0.032 C 
HETATM   13  N1  UNL     1      -7.867  47.404 -24.219  1.00  0.00    -0.271 N 
ATOM     14  H1  UNL     1      -7.977  46.589 -24.821  1.00  0.00     0.194 HD
HETATM   15  C24 UNL     1      -6.762  49.479 -23.412  1.00  0.00     0.060 C 
HETATM   16  C25 UNL     1      -5.612  50.409 -23.799  1.00  0.00     0.020 C 
HETATM   17  C26 UNL     1      -4.329  49.659 -24.239  1.00  0.00    -0.016 C 
HETATM   18  C27 UNL     1      -3.785  48.828 -23.051  1.00  0.00     0.020 C 
HETATM   19  C28 UNL     1      -3.255  50.667 -24.778  1.00  0.00     0.002 C 
HETATM   20  C29 UNL     1      -2.839  51.774 -23.795  1.00  0.00     0.007 C 
HETATM   21  C30 UNL     1      -1.874  52.765 -24.456  1.00  0.00     0.014 C 
HETATM   22  C31 UNL     1      -0.593  52.113 -25.047  1.00  0.00     0.003 C 
HETATM   23  C32 UNL     1       0.354  51.715 -23.899  1.00  0.00     0.020 C 
ENDROOT
BRANCH   3  24
HETATM   24  O1  UNL     1       1.440  52.562 -26.372  1.00  0.00    -0.377 OA
HETATM   25  H2  UNL     1       1.377  51.757 -26.908  1.00  0.00     0.211 HD
ENDBRANCH   3  24
BRANCH  13  26
HETATM   26  O2  UNL     1      -8.728  47.730 -23.161  1.00  0.00    -0.271 OA
BRANCH  26  27
HETATM   27  C13 UNL     1      -9.537  46.595 -22.863  1.00  0.00     0.303 C 
BRANCH  27  28
HETATM   28  C14 UNL     1     -10.697  46.605 -23.838  1.00  0.00     0.244 C 
HETATM   29  O3  UNL     1     -10.870  47.491 -24.672  1.00  0.00    -0.271 OA
HETATM   30  N2  UNL     1     -11.535  45.517 -23.746  1.00  0.00    -0.342 N 
HETATM   31  H16 UNL     1     -11.422  44.837 -22.997  1.00  0.00     0.163 HD
BRANCH  30  32
HETATM   32  C15 UNL     1     -12.771  45.420 -24.543  1.00  0.00     0.216 C 
BRANCH  32  33
HETATM   33  C16 UNL     1     -12.418  45.008 -25.978  1.00  0.00     0.166 C 
HETATM   34  O4  UNL     1     -11.702  45.609 -26.766  1.00  0.00    -0.648 OA
BRANCH  33  35
HETATM   35  O5  UNL     1     -13.024  43.859 -26.373  1.00  0.00    -0.775 OA
HETATM   36  H18 UNL     1     -12.657  43.708 -27.273  1.00  0.00     0.167 HD
ENDBRANCH  33  35
ENDBRANCH  32  33
BRANCH  32  37
HETATM   37  C17 UNL     1     -13.559  46.751 -24.512  1.00  0.00     0.184 C 
BRANCH  37  38
HETATM   38  O6  UNL     1     -13.573  47.354 -25.815  1.00  0.00    -0.388 OA
HETATM   39  H20 UNL     1     -12.662  47.656 -25.979  1.00  0.00     0.210 HD
ENDBRANCH  37  38
BRANCH  37  40
HETATM   40  C18 UNL     1     -14.964  46.625 -23.955  1.00  0.00    -0.025 A 
HETATM   41  C19 UNL     1     -15.143  46.454 -22.571  1.00  0.00     0.010 A 
HETATM   42  C20 UNL     1     -16.422  46.317 -22.021  1.00  0.00     0.003 A 
HETATM   43  C21 UNL     1     -17.545  46.354 -22.847  1.00  0.00     0.036 A 
HETATM   44  C22 UNL     1     -17.378  46.529 -24.226  1.00  0.00     0.103 A 
HETATM   45  C23 UNL     1     -16.098  46.666 -24.782  1.00  0.00     0.045 A 
BRANCH  44  46
HETATM   46  N3  UNL     1     -18.560  46.569 -25.097  1.00  0.00    -0.116 N 
HETATM   47  O7  UNL     1     -18.627  45.748 -26.025  1.00  0.00    -0.532 OA
HETATM   48  O8  UNL     1     -19.422  47.429 -24.862  1.00  0.00    -0.532 OA
ENDBRANCH  44  46
ENDBRANCH  37  40
ENDBRANCH  32  37
ENDBRANCH  30  32
ENDBRANCH  27  28
ENDBRANCH  26  27
ENDBRANCH  13  26
TORSDOF 11
ENDMDL
