MODEL 1
REMARK minimizedAffinity -9.8261795
REMARK CNNscore 0.485622764
REMARK CNNaffinity 7.38247538
REMARK  14 active torsions:
REMARK  status: ('A' for Active; 'I' for Inactive)
REMARK    1  A    between atoms: C19_20  and  O2_21 
REMARK    2  A    between atoms: C19_20  and  C20_22 
REMARK    3  A    between atoms: C20_22  and  C21_24 
REMARK    4  A    between atoms: C21_24  and  O4_25 
REMARK    5  A    between atoms: O4_25  and  C22_26 
REMARK    6  A    between atoms: C22_26  and  C23_28 
REMARK    7  A    between atoms: C23_28  and  C24_29 
REMARK    8  A    between atoms: C24_29  and  C25_30 
REMARK       I    between atoms: C25_30  and  N1_32 
REMARK    9  A    between atoms: N1_32  and  C26_33 
REMARK   10  A    between atoms: C26_33  and  C27_34 
REMARK   11  A    between atoms: C26_33  and  C36_45 
REMARK   12  A    between atoms: C27_34  and  C28_35 
REMARK   13  A    between atoms: C33_41  and  O7_42 
REMARK   14  A    between atoms: C36_45  and  O9_47 
ROOT
HETATM    1  O4  UNL     1      -0.801  11.246  15.896  1.00  0.00    -0.314 OA
ENDROOT
BRANCH   1   2
HETATM    2  C21 UNL     1      -0.146  10.221  15.146  1.00  0.00     0.260 C 
BRANCH   2   3
HETATM    3  C20 UNL     1      -0.816   8.854  15.322  1.00  0.00     0.185 C 
HETATM    4  O3  UNL     1      -0.589   8.172  16.326  1.00  0.00    -0.292 OA
BRANCH   3   5
HETATM    5  C19 UNL     1      -1.686   8.341  14.137  1.00  0.00     0.128 C 
HETATM    6  C14 UNL     1      -3.235   8.491  14.304  1.00  0.00    -0.002 C 
HETATM    7  C13 UNL     1      -3.960   8.324  12.935  1.00  0.00     0.013 C 
HETATM    8  C15 UNL     1      -3.634   9.853  14.904  1.00  0.00     0.019 C 
HETATM    9  C16 UNL     1      -3.581   7.315  15.243  1.00  0.00     0.002 C 
HETATM   10  C12 UNL     1      -5.459   8.037  13.051  1.00  0.00     0.007 C 
HETATM   11  C11 UNL     1      -5.742   6.795  13.916  1.00  0.00     0.002 C 
HETATM   12  C2  UNL     1      -7.267   6.419  14.017  1.00  0.00    -0.016 C 
HETATM   13  C10 UNL     1      -5.089   6.985  15.319  1.00  0.00    -0.004 C 
HETATM   14  C1  UNL     1      -8.112   7.583  14.598  1.00  0.00     0.020 C 
HETATM   15  C3  UNL     1      -7.912   6.083  12.640  1.00  0.00     0.022 C 
HETATM   16  C7  UNL     1      -7.339   5.197  14.937  1.00  0.00    -0.068 C 
HETATM   17  C4  UNL     1      -7.526   4.720  12.092  1.00  0.00     0.084 C 
HETATM   18  C5  UNL     1      -7.866   3.648  13.096  1.00  0.00     0.149 C 
HETATM   19  O1  UNL     1      -8.192   2.509  12.765  1.00  0.00    -0.293 OA
HETATM   20  C6  UNL     1      -7.671   3.957  14.532  1.00  0.00     0.053 C 
HETATM   21  C8  UNL     1      -6.826   5.413  16.339  1.00  0.00     0.035 C 
HETATM   22  C9  UNL     1      -5.348   5.789  16.260  1.00  0.00     0.010 C 
HETATM   23  C17 UNL     1      -2.666   6.172  14.766  1.00  0.00     0.009 C 
HETATM   24  C18 UNL     1      -1.479   6.818  14.043  1.00  0.00     0.047 C 
BRANCH   5  25
HETATM   25  O2  UNL     1      -1.262   8.943  12.915  1.00  0.00    -0.381 OA
HETATM   26  H27 UNL     1      -1.560   9.873  12.919  1.00  0.00     0.211 HD
ENDBRANCH   5  25
ENDBRANCH   3   5
ENDBRANCH   2   3
ENDBRANCH   1   2
BRANCH   1  27
HETATM   27  C22 UNL     1      -0.516  11.201  17.229  1.00  0.00     0.259 C 
HETATM   28  O5  UNL     1      -1.325  10.903  18.104  1.00  0.00    -0.265 OA
BRANCH  27  29
HETATM   29  C23 UNL     1       0.947  11.463  17.509  1.00  0.00     0.120 C 
BRANCH  29  30
HETATM   30  C24 UNL     1       1.639  10.385  18.337  1.00  0.00     0.112 C 
BRANCH  30  31
HETATM   31  C25 UNL     1       1.751  10.772  19.797  1.00  0.00     0.218 C 
HETATM   32  O6  UNL     1       1.260  11.795  20.266  1.00  0.00    -0.274 OA
HETATM   33  N1  UNL     1       2.435   9.852  20.548  1.00  0.00    -0.346 N 
HETATM   34  H34 UNL     1       2.713   8.959  20.149  1.00  0.00     0.163 HD
BRANCH  33  35
HETATM   35  C26 UNL     1       2.702  10.048  21.981  1.00  0.00     0.186 C 
BRANCH  35  36
HETATM   36  C27 UNL     1       4.178  10.409  22.188  1.00  0.00     0.077 C 
BRANCH  36  37
HETATM   37  C28 UNL     1       4.419  11.850  22.512  1.00  0.00    -0.028 A 
HETATM   38  C29 UNL     1       3.455  12.838  22.574  1.00  0.00     0.096 A 
HETATM   39  N2  UNL     1       4.069  14.021  22.876  1.00  0.00    -0.365 N 
HETATM   40  C30 UNL     1       5.425  13.834  23.012  1.00  0.00     0.043 A 
HETATM   41  H39 UNL     1       3.599  14.910  22.980  1.00  0.00     0.165 HD
HETATM   42  C31 UNL     1       6.435  14.756  23.312  1.00  0.00     0.033 A 
HETATM   43  C35 UNL     1       5.676  12.480  22.784  1.00  0.00     0.001 A 
HETATM   44  C32 UNL     1       7.749  14.278  23.385  1.00  0.00     0.039 A 
HETATM   45  C33 UNL     1       8.021  12.932  23.164  1.00  0.00     0.066 A 
HETATM   46  C34 UNL     1       7.008  12.023  22.860  1.00  0.00     0.050 A 
BRANCH  45  47
HETATM   47  O7  UNL     1       9.299  12.451  23.234  1.00  0.00    -0.361 OA
HETATM   48  H42 UNL     1       9.886  13.179  23.498  1.00  0.00     0.217 HD
ENDBRANCH  45  47
ENDBRANCH  36  37
ENDBRANCH  35  36
BRANCH  35  49
HETATM   49  C36 UNL     1       2.358   8.759  22.732  1.00  0.00     0.163 C 
HETATM   50  O8  UNL     1       1.939   7.712  22.263  1.00  0.00    -0.648 OA
BRANCH  49  51
HETATM   51  O9  UNL     1       2.522   8.860  24.077  1.00  0.00    -0.775 OA
HETATM   52  H44 UNL     1       2.255   7.967  24.391  1.00  0.00     0.167 HD
ENDBRANCH  49  51
ENDBRANCH  35  49
ENDBRANCH  33  35
ENDBRANCH  30  31
ENDBRANCH  29  30
ENDBRANCH  27  29
ENDBRANCH   1  27
TORSDOF 14
ENDMDL
