MODEL 1
REMARK minimizedAffinity -7.26654673
REMARK CNNscore 0.712122202
REMARK CNNaffinity 6.60355806
REMARK  8 active torsions:
REMARK  status: ('A' for Active; 'I' for Inactive)
REMARK    1  A    between atoms: C4_4  and  C5_5 
REMARK    2  A    between atoms: C5_5  and  C6_6 
REMARK    3  A    between atoms: C6_6  and  C7_7 
REMARK    4  A    between atoms: C7_7  and  C9_9 
REMARK    5  A    between atoms: C18_18  and  C20_20 
REMARK    6  A    between atoms: C20_20  and  O2_22 
REMARK    7  A    between atoms: C21_23  and  O3_24 
REMARK    8  A    between atoms: C23_26  and  O4_27 
ROOT
HETATM    1  C9  UNL     1       4.272  55.104  -8.162  1.00  0.00    -0.002 C 
HETATM    2  C10 UNL     1       3.586  56.423  -7.746  1.00  0.00     0.006 C 
HETATM    3  C11 UNL     1       2.120  56.337  -8.215  1.00  0.00     0.011 C 
HETATM    4  C12 UNL     1       1.915  54.889  -8.704  1.00  0.00    -0.032 C 
HETATM    5  C13 UNL     1       1.499  54.037  -7.465  1.00  0.00     0.016 C 
HETATM    6  C14 UNL     1       0.858  54.728  -9.824  1.00  0.00     0.004 C 
HETATM    7  C15 UNL     1      -0.571  55.109  -9.384  1.00  0.00     0.007 C 
HETATM    8  C16 UNL     1      -1.547  53.942  -9.320  1.00  0.00     0.007 C 
HETATM    9  C17 UNL     1      -1.661  53.290 -10.703  1.00  0.00     0.018 C 
HETATM   10  C18 UNL     1      -2.902  52.359 -10.906  1.00  0.00     0.072 C 
HETATM   11  C19 UNL     1      -4.179  53.231 -11.047  1.00  0.00     0.030 C 
HETATM   12  C21 UNL     1      -2.705  51.556 -12.216  1.00  0.00     0.139 C 
HETATM   13  C22 UNL     1      -1.425  50.705 -12.251  1.00  0.00     0.065 C 
HETATM   14  C23 UNL     1      -0.351  51.143 -11.252  1.00  0.00     0.130 C 
HETATM   15  C24 UNL     1      -0.312  52.647 -11.066  1.00  0.00    -0.001 A 
HETATM   16  C25 UNL     1       0.586  53.398 -12.020  1.00  0.00     0.024 A 
HETATM   17  C26 UNL     1       0.978  53.359 -10.554  1.00  0.00    -0.025 A 
HETATM   18  C27 UNL     1       2.164  52.444 -10.181  1.00  0.00     0.011 C 
HETATM   19  C28 UNL     1       3.411  53.049  -9.513  1.00  0.00     0.011 C 
HETATM   20  C29 UNL     1       3.333  54.556  -9.284  1.00  0.00    -0.032 C 
HETATM   21  C30 UNL     1       3.652  55.253 -10.636  1.00  0.00     0.016 C 
ENDROOT
BRANCH   1  22
HETATM   22  C7  UNL     1       5.804  55.145  -8.446  1.00  0.00    -0.014 C 
HETATM   23  C8  UNL     1       6.052  55.488  -9.922  1.00  0.00     0.010 C 
BRANCH  22  24
HETATM   24  C6  UNL     1       6.630  53.916  -7.991  1.00  0.00     0.008 C 
BRANCH  24  25
HETATM   25  C5  UNL     1       6.890  52.802  -9.026  1.00  0.00     0.028 C 
BRANCH  25  26
HETATM   26  C4  UNL     1       7.010  51.435  -8.405  1.00  0.00    -0.025 C 
HETATM   27  C2  UNL     1       6.993  50.235  -9.017  1.00  0.00    -0.091 C 
HETATM   28  C1  UNL     1       6.820  50.012 -10.493  1.00  0.00     0.042 C 
HETATM   29  C3  UNL     1       7.158  48.968  -8.219  1.00  0.00     0.042 C 
ENDBRANCH  25  26
ENDBRANCH  24  25
ENDBRANCH  22  24
ENDBRANCH   1  22
BRANCH  14  30
HETATM   30  O4  UNL     1      -0.571  50.530  -9.985  1.00  0.00    -0.395 OA
HETATM   31  H39 UNL     1      -0.377  49.583 -10.085  1.00  0.00     0.210 HD
ENDBRANCH  14  30
BRANCH  10  32
HETATM   32  C20 UNL     1      -3.213  51.440  -9.723  1.00  0.00     0.151 C 
HETATM   33  O1  UNL     1      -2.699  51.463  -8.615  1.00  0.00    -0.649 OA
BRANCH  32  34
HETATM   34  O2  UNL     1      -4.264  50.617  -9.917  1.00  0.00    -0.776 OA
HETATM   35  H33 UNL     1      -4.321  50.150  -9.057  1.00  0.00     0.167 HD
ENDBRANCH  32  34
ENDBRANCH  10  32
BRANCH  12  36
HETATM   36  O3  UNL     1      -2.666  52.461 -13.338  1.00  0.00    -0.394 OA
HETATM   37  H35 UNL     1      -2.738  51.926 -14.146  1.00  0.00     0.210 HD
ENDBRANCH  12  36
TORSDOF 8
ENDMDL
