MODEL 1
REMARK minimizedAffinity -6.96968222
REMARK CNNscore 0.43043673
REMARK CNNaffinity 5.89927816
REMARK  20 active torsions:
REMARK  status: ('A' for Active; 'I' for Inactive)
REMARK    1  A    between atoms: C2_2  and  C18_24 
REMARK    2  A    between atoms: C3_3  and  C4_4 
REMARK    3  A    between atoms: C4_4  and  O2_6 
REMARK    4  A    between atoms: O2_6  and  C5_7 
REMARK    5  A    between atoms: C5_7  and  C6_8 
REMARK    6  A    between atoms: C6_8  and  C7_9 
REMARK    7  A    between atoms: C7_9  and  C8_10 
REMARK    8  A    between atoms: C8_10  and  C9_11 
REMARK    9  A    between atoms: C9_11  and  C10_12 
REMARK   10  A    between atoms: C10_12  and  C11_13 
REMARK   11  A    between atoms: C11_13  and  C12_14 
REMARK       I    between atoms: C12_14  and  N1_16 
REMARK   12  A    between atoms: N1_16  and  C13_17 
REMARK   13  A    between atoms: C18_24  and  C19_25 
REMARK   14  A    between atoms: C21_28  and  C22_29 
REMARK   15  A    between atoms: C22_29  and  C23_30 
REMARK   16  A    between atoms: C24_31  and  C25_32 
REMARK   17  A    between atoms: C25_32  and  C27_34 
REMARK   18  A    between atoms: C27_34  and  O6_36 
REMARK   19  A    between atoms: C29_37  and  O7_38 
REMARK   20  A    between atoms: C30_39  and  O8_40 
ROOT
HETATM    1  C1  UNL     1      -4.890  48.112 -28.553  1.00  0.00     0.043 C 
HETATM    2  C2  UNL     1      -5.611  47.994 -27.236  1.00  0.00    -0.075 C 
HETATM    3  C3  UNL     1      -6.761  47.312 -27.051  1.00  0.00     0.084 C 
ENDROOT
BRANCH   3   4
HETATM    4  C4  UNL     1      -7.558  46.643 -28.111  1.00  0.00     0.283 C 
HETATM    5  O1  UNL     1      -7.260  45.616 -28.693  1.00  0.00    -0.260 OA
BRANCH   4   6
HETATM    6  O2  UNL     1      -8.668  47.397 -28.321  1.00  0.00    -0.318 OA
BRANCH   6   7
HETATM    7  C5  UNL     1      -9.405  47.082 -29.514  1.00  0.00     0.179 C 
BRANCH   7   8
HETATM    8  C6  UNL     1     -10.769  46.501 -29.145  1.00  0.00     0.027 C 
BRANCH   8   9
HETATM    9  C7  UNL     1     -11.948  47.321 -29.673  1.00  0.00     0.002 C 
BRANCH   9  10
HETATM   10  C8  UNL     1     -13.295  46.851 -29.116  1.00  0.00     0.000 C 
BRANCH  10  11
HETATM   11  C9  UNL     1     -13.309  46.703 -27.592  1.00  0.00     0.000 C 
BRANCH  11  12
HETATM   12  C10 UNL     1     -14.651  46.217 -27.042  1.00  0.00     0.009 C 
BRANCH  12  13
HETATM   13  C11 UNL     1     -15.292  45.190 -27.976  1.00  0.00     0.103 C 
BRANCH  13  14
HETATM   14  C12 UNL     1     -16.681  44.785 -27.516  1.00  0.00     0.218 C 
HETATM   15  O3  UNL     1     -17.491  44.204 -28.229  1.00  0.00    -0.274 OA
HETATM   16  N1  UNL     1     -16.952  45.173 -26.221  1.00  0.00    -0.348 N 
HETATM   17  H19 UNL     1     -16.163  45.390 -25.622  1.00  0.00     0.163 HD
BRANCH  16  18
HETATM   18  C13 UNL     1     -18.188  44.755 -25.557  1.00  0.00     0.176 C 
HETATM   19  C14 UNL     1     -19.236  45.871 -25.522  1.00  0.00     0.036 C 
HETATM   20  C15 UNL     1     -18.905  46.913 -24.459  1.00  0.00     0.022 C 
HETATM   21  C16 UNL     1     -18.837  46.235 -23.101  1.00  0.00     0.122 C 
HETATM   22  N2  UNL     1     -17.941  45.104 -23.101  1.00  0.00    -0.359 N 
HETATM   23  C17 UNL     1     -17.808  44.241 -24.157  1.00  0.00     0.240 C 
HETATM   24  H27 UNL     1     -17.692  44.686 -22.212  1.00  0.00     0.162 HD
HETATM   25  O4  UNL     1     -17.243  43.159 -23.985  1.00  0.00    -0.271 OA
ENDBRANCH  16  18
ENDBRANCH  13  14
ENDBRANCH  12  13
ENDBRANCH  11  12
ENDBRANCH  10  11
ENDBRANCH   9  10
ENDBRANCH   8   9
ENDBRANCH   7   8
ENDBRANCH   6   7
ENDBRANCH   4   6
ENDBRANCH   3   4
BRANCH   2  26
HETATM   26  C18 UNL     1      -4.948  48.693 -26.059  1.00  0.00     0.068 C 
BRANCH  26  27
HETATM   27  C19 UNL     1      -3.437  48.920 -26.270  1.00  0.00     0.156 C 
HETATM   28  O5  UNL     1      -2.625  48.486 -25.167  1.00  0.00    -0.382 OA
HETATM   29  C20 UNL     1      -2.752  49.258 -23.974  1.00  0.00     0.175 C 
HETATM   30  C21 UNL     1      -2.350  50.719 -24.193  1.00  0.00     0.044 C 
HETATM   31  C29 UNL     1      -3.181  51.287 -25.358  1.00  0.00     0.155 C 
HETATM   32  C30 UNL     1      -3.098  50.382 -26.599  1.00  0.00     0.176 C 
BRANCH  30  33
HETATM   33  C22 UNL     1      -2.524  51.506 -22.877  1.00  0.00     0.036 C 
BRANCH  33  34
HETATM   34  C23 UNL     1      -1.277  51.555 -22.036  1.00  0.00    -0.030 C 
HETATM   35  C24 UNL     1      -0.502  52.647 -21.920  1.00  0.00    -0.024 C 
BRANCH  35  36
HETATM   36  C25 UNL     1       0.764  52.806 -21.096  1.00  0.00     0.032 C 
HETATM   37  C26 UNL     1       1.496  54.085 -21.536  1.00  0.00     0.017 C 
BRANCH  36  38
HETATM   38  C27 UNL     1       0.618  52.734 -19.552  1.00  0.00     0.121 C 
HETATM   39  C28 UNL     1      -0.496  51.814 -19.056  1.00  0.00     0.040 C 
BRANCH  38  40
HETATM   40  O6  UNL     1       0.347  54.042 -19.032  1.00  0.00    -0.395 OA
HETATM   41  H46 UNL     1       1.117  54.598 -19.237  1.00  0.00     0.210 HD
ENDBRANCH  38  40
ENDBRANCH  36  38
ENDBRANCH  35  36
ENDBRANCH  33  34
ENDBRANCH  30  33
BRANCH  31  42
HETATM   42  O7  UNL     1      -2.717  52.589 -25.723  1.00  0.00    -0.392 OA
HETATM   43  H48 UNL     1      -1.965  52.440 -26.337  1.00  0.00     0.210 HD
ENDBRANCH  31  42
BRANCH  32  44
HETATM   44  O8  UNL     1      -1.747  50.460 -27.102  1.00  0.00    -0.390 OA
HETATM   45  H50 UNL     1      -1.235  49.771 -26.633  1.00  0.00     0.210 HD
ENDBRANCH  32  44
ENDBRANCH  26  27
ENDBRANCH   2  26
TORSDOF 20
ENDMDL
