MODEL 1
REMARK minimizedAffinity -6.72846222
REMARK CNNscore 0.667815089
REMARK CNNaffinity 6.24524641
REMARK  8 active torsions:
REMARK  status: ('A' for Active; 'I' for Inactive)
REMARK    1  A    between atoms: C2_2  and  C3_3 
REMARK    2  A    between atoms: C2_2  and  C27_30 
REMARK    3  A    between atoms: C3_3  and  C4_4 
REMARK    4  A    between atoms: C4_4  and  C5_5 
REMARK    5  A    between atoms: C5_5  and  C7_7 
REMARK    6  A    between atoms: C26_28  and  O3_29 
REMARK    7  A    between atoms: C27_30  and  C29_32 
REMARK    8  A    between atoms: C29_32  and  O5_34 
ROOT
HETATM    1  C7  UNL     1     -16.774   2.911  13.701  1.00  0.00    -0.002 C 
HETATM    2  C8  UNL     1     -15.656   3.051  14.751  1.00  0.00     0.006 C 
HETATM    3  C9  UNL     1     -14.944   1.709  14.713  1.00  0.00     0.010 C 
HETATM    4  C10 UNL     1     -16.118   0.730  14.667  1.00  0.00     0.027 C 
HETATM    5  C11 UNL     1     -15.732  -0.715  14.417  1.00  0.00    -0.036 C 
HETATM    6  C12 UNL     1     -16.071  -1.412  13.307  1.00  0.00     0.002 C 
HETATM    7  C13 UNL     1     -16.681  -0.653  12.156  1.00  0.00     0.157 C 
HETATM    8  O1  UNL     1     -16.971  -1.219  11.103  1.00  0.00    -0.293 OA
HETATM    9  C14 UNL     1     -16.807   0.848  12.243  1.00  0.00     0.093 C 
HETATM   10  C15 UNL     1     -17.113   1.369  13.658  1.00  0.00    -0.026 C 
HETATM   11  C16 UNL     1     -18.546   0.961  14.037  1.00  0.00     0.016 C 
HETATM   12  C17 UNL     1     -15.846  -2.934  13.135  1.00  0.00    -0.008 C 
HETATM   13  C18 UNL     1     -17.217  -3.613  12.836  1.00  0.00     0.021 C 
HETATM   14  C19 UNL     1     -14.881  -3.180  11.931  1.00  0.00     0.022 C 
HETATM   15  C20 UNL     1     -13.613  -3.971  12.222  1.00  0.00     0.080 C 
HETATM   16  C21 UNL     1     -13.875  -5.190  13.058  1.00  0.00     0.131 C 
HETATM   17  O2  UNL     1     -13.325  -6.265  12.794  1.00  0.00    -0.298 OA
HETATM   18  C22 UNL     1     -14.810  -5.050  14.249  1.00  0.00     0.056 C 
HETATM   19  C23 UNL     1     -14.168  -5.668  15.492  1.00  0.00     0.018 C 
HETATM   20  C24 UNL     1     -15.313  -3.598  14.461  1.00  0.00     0.012 C 
HETATM   21  C25 UNL     1     -14.313  -2.680  15.183  1.00  0.00     0.042 C 
HETATM   22  C26 UNL     1     -14.979  -1.357  15.556  1.00  0.00     0.148 C 
ENDROOT
BRANCH   1  23
HETATM   23  C5  UNL     1     -17.862   4.015  13.823  1.00  0.00    -0.014 C 
HETATM   24  C6  UNL     1     -18.872   4.061  12.674  1.00  0.00     0.010 C 
BRANCH  23  25
HETATM   25  C4  UNL     1     -17.225   5.402  14.099  1.00  0.00     0.009 C 
BRANCH  25  26
HETATM   26  C3  UNL     1     -16.589   6.078  12.866  1.00  0.00     0.034 C 
BRANCH  26  27
HETATM   27  C2  UNL     1     -15.422   7.024  13.081  1.00  0.00    -0.075 C 
HETATM   28  C1  UNL     1     -14.194   6.577  13.409  1.00  0.00     0.015 C 
BRANCH  27  29
HETATM   29  C27 UNL     1     -15.693   8.525  12.978  1.00  0.00     0.107 C 
HETATM   30  C28 UNL     1     -14.408   9.345  12.874  1.00  0.00     0.026 C 
BRANCH  29  31
HETATM   31  C29 UNL     1     -16.640   8.874  11.829  1.00  0.00     0.147 C 
HETATM   32  O4  UNL     1     -17.811   9.208  11.888  1.00  0.00    -0.650 OA
BRANCH  31  33
HETATM   33  O5  UNL     1     -16.038   8.773  10.623  1.00  0.00    -0.776 OA
HETATM   34  H42 UNL     1     -16.745   9.025   9.992  1.00  0.00     0.167 HD
ENDBRANCH  31  33
ENDBRANCH  29  31
ENDBRANCH  27  29
ENDBRANCH  26  27
ENDBRANCH  25  26
ENDBRANCH  23  25
ENDBRANCH   1  23
BRANCH  22  35
HETATM   35  O3  UNL     1     -15.902  -1.553  16.622  1.00  0.00    -0.391 OA
HETATM   36  H37 UNL     1     -15.400  -1.865  17.394  1.00  0.00     0.210 HD
ENDBRANCH  22  35
TORSDOF 8
ENDMDL
