MODEL 1
REMARK minimizedAffinity -8.64205265
REMARK CNNscore 0.770808041
REMARK CNNaffinity 6.74549532
REMARK  9 active torsions:
REMARK  status: ('A' for Active; 'I' for Inactive)
REMARK    1  A    between atoms: C2_2  and  C32_37 
REMARK    2  A    between atoms: C3_3  and  C4_4 
REMARK    3  A    between atoms: C4_4  and  O1_5 
REMARK    4  A    between atoms: C4_4  and  C5_6 
REMARK    5  A    between atoms: C5_6  and  C6_7 
REMARK    6  A    between atoms: C6_7  and  C8_9 
REMARK    7  A    between atoms: C29_32  and  O4_33 
REMARK    8  A    between atoms: C30_34  and  O5_35 
REMARK    9  A    between atoms: C32_37  and  O7_39 
ROOT
HETATM    1  C8  UNL     1       4.133  55.233  -8.795  1.00  0.00    -0.026 C 
HETATM    2  C9  UNL     1       3.998  56.605  -9.563  1.00  0.00     0.011 C 
HETATM    3  C10 UNL     1       3.312  56.529 -10.914  1.00  0.00     0.002 C 
HETATM    4  C11 UNL     1       2.089  55.635 -10.884  1.00  0.00     0.017 C 
HETATM    5  C12 UNL     1       2.270  54.331 -10.046  1.00  0.00     0.021 C 
HETATM    6  C13 UNL     1       0.906  53.639 -10.078  1.00  0.00    -0.029 C 
HETATM    7  C14 UNL     1      -0.064  53.908  -9.166  1.00  0.00     0.002 C 
HETATM    8  C15 UNL     1       0.220  54.966  -8.109  1.00  0.00     0.157 C 
HETATM    9  O2  UNL     1      -0.689  55.456  -7.438  1.00  0.00    -0.293 OA
HETATM   10  C16 UNL     1       1.637  55.492  -7.900  1.00  0.00     0.094 C 
HETATM   11  C17 UNL     1       2.693  54.604  -8.557  1.00  0.00    -0.015 C 
HETATM   12  C18 UNL     1       2.743  53.255  -7.745  1.00  0.00     0.018 C 
HETATM   13  C19 UNL     1      -1.493  53.304  -9.281  1.00  0.00    -0.008 C 
HETATM   14  C20 UNL     1      -2.099  53.032  -7.874  1.00  0.00     0.021 C 
HETATM   15  C21 UNL     1      -2.316  54.404  -9.996  1.00  0.00     0.022 C 
HETATM   16  C22 UNL     1      -3.693  53.971 -10.427  1.00  0.00     0.080 C 
HETATM   17  C23 UNL     1      -3.548  52.862 -11.427  1.00  0.00     0.135 C 
HETATM   18  O3  UNL     1      -4.132  52.934 -12.508  1.00  0.00    -0.297 OA
HETATM   19  C24 UNL     1      -2.805  51.601 -10.973  1.00  0.00     0.018 C 
HETATM   20  C25 UNL     1      -2.492  50.762 -12.233  1.00  0.00     0.023 C 
HETATM   21  C26 UNL     1      -3.852  50.780 -10.175  1.00  0.00     0.023 C 
HETATM   22  C27 UNL     1      -1.535  51.896 -10.055  1.00  0.00     0.016 C 
HETATM   23  C28 UNL     1      -0.158  51.501 -10.645  1.00  0.00     0.043 C 
HETATM   24  C29 UNL     1       0.641  52.667 -11.193  1.00  0.00     0.149 C 
HETATM   25  C30 UNL     1       3.525  53.535 -10.525  1.00  0.00     0.132 C 
HETATM   26  C31 UNL     1       4.731  54.185  -9.794  1.00  0.00     0.043 C 
ENDROOT
BRANCH   1  27
HETATM   27  C6  UNL     1       5.089  55.562  -7.565  1.00  0.00    -0.006 C 
HETATM   28  C7  UNL     1       4.970  57.043  -7.141  1.00  0.00     0.011 C 
BRANCH  27  29
HETATM   29  C5  UNL     1       6.573  55.141  -7.668  1.00  0.00     0.040 C 
BRANCH  29  30
HETATM   30  C4  UNL     1       7.282  54.897  -6.319  1.00  0.00     0.142 C 
BRANCH  30  31
HETATM   31  C3  UNL     1       8.283  55.986  -6.026  1.00  0.00     0.018 C 
HETATM   32  C2  UNL     1       9.412  55.937  -5.284  1.00  0.00     0.010 C 
HETATM   33  C1  UNL     1       9.892  54.750  -4.499  1.00  0.00     0.055 C 
BRANCH  32  34
HETATM   34  C32 UNL     1      10.288  57.134  -5.164  1.00  0.00     0.171 C 
HETATM   35  O6  UNL     1       9.922  58.290  -5.272  1.00  0.00    -0.646 OA
BRANCH  34  36
HETATM   36  O7  UNL     1      11.585  56.844  -4.948  1.00  0.00    -0.773 OA
HETATM   37  H46 UNL     1      12.013  57.726  -4.919  1.00  0.00     0.167 HD
ENDBRANCH  34  36
ENDBRANCH  32  34
ENDBRANCH  30  31
BRANCH  30  38
HETATM   38  O1  UNL     1       6.337  54.811  -5.265  1.00  0.00    -0.392 OA
HETATM   39  H6  UNL     1       6.819  54.449  -4.498  1.00  0.00     0.210 HD
ENDBRANCH  30  38
ENDBRANCH  29  30
ENDBRANCH  27  29
ENDBRANCH   1  27
BRANCH  25  40
HETATM   40  O5  UNL     1       3.696  53.570 -11.933  1.00  0.00    -0.394 OA
HETATM   41  H43 UNL     1       4.499  53.056 -12.140  1.00  0.00     0.210 HD
ENDBRANCH  25  40
BRANCH  24  42
HETATM   42  O4  UNL     1      -0.092  53.311 -12.217  1.00  0.00    -0.391 OA
HETATM   43  H41 UNL     1       0.543  53.845 -12.728  1.00  0.00     0.210 HD
ENDBRANCH  24  42
TORSDOF 9
ENDMDL
