MODEL 1
REMARK minimizedAffinity -7.86401033
REMARK CNNscore 0.866499066
REMARK CNNaffinity 6.80671644
REMARK  10 active torsions:
REMARK  status: ('A' for Active; 'I' for Inactive)
REMARK    1  A    between atoms: C2_2  and  O2_4 
REMARK    2  A    between atoms: O2_4  and  C3_5 
REMARK    3  A    between atoms: C3_5  and  C4_6 
REMARK    4  A    between atoms: C18_21  and  O4_22 
REMARK    5  A    between atoms: C21_25  and  O5_26 
REMARK    6  A    between atoms: C21_25  and  C22_27 
REMARK    7  A    between atoms: C22_27  and  O6_29 
REMARK    8  A    between atoms: C22_27  and  C24_30 
REMARK    9  A    between atoms: C28_34  and  C29_35 
REMARK   10  A    between atoms: C29_35  and  O7_36 
ROOT
HETATM    1  C4  UNL     1       1.048  51.700 -10.675  1.00  0.00     0.047 C 
HETATM    2  C5  UNL     1       2.406  50.983 -10.654  1.00  0.00     0.018 C 
HETATM    3  C6  UNL     1       3.382  51.640  -9.656  1.00  0.00     0.007 C 
HETATM    4  C7  UNL     1       3.579  53.174  -9.857  1.00  0.00     0.013 C 
HETATM    5  C8  UNL     1       2.212  53.915 -10.021  1.00  0.00     0.030 C 
HETATM    6  C9  UNL     1       2.437  55.388 -10.401  1.00  0.00     0.035 C 
HETATM    7  C10 UNL     1       3.471  56.048  -9.549  1.00  0.00    -0.022 C 
HETATM    8  C11 UNL     1       4.370  55.393  -8.793  1.00  0.00    -0.064 C 
HETATM    9  C12 UNL     1       5.358  56.177  -7.953  1.00  0.00     0.062 C 
HETATM   10  C13 UNL     1       6.745  55.622  -8.047  1.00  0.00    -0.019 C 
HETATM   11  C14 UNL     1       7.047  54.429  -8.571  1.00  0.00     0.047 C 
HETATM   12  C15 UNL     1       5.978  53.523  -9.069  1.00  0.00     0.162 C 
HETATM   13  O3  UNL     1       6.334  52.509  -9.670  1.00  0.00    -0.292 OA
HETATM   14  C16 UNL     1       4.492  53.861  -8.759  1.00  0.00     0.048 C 
HETATM   15  C17 UNL     1       4.172  53.348  -7.341  1.00  0.00     0.029 C 
HETATM   16  C18 UNL     1       1.304  53.189 -11.041  1.00  0.00     0.075 C 
HETATM   17  C19 UNL     1      -0.105  53.736 -11.227  1.00  0.00     0.042 C 
HETATM   18  C20 UNL     1      -0.830  52.616 -11.996  1.00  0.00     0.045 C 
HETATM   19  C21 UNL     1      -0.032  51.282 -11.756  1.00  0.00     0.103 C 
ENDROOT
BRANCH  19  20
HETATM   20  O5  UNL     1      -1.006  50.410 -11.108  1.00  0.00    -0.386 OA
HETATM   21  H27 UNL     1      -1.592  50.117 -11.841  1.00  0.00     0.210 HD
ENDBRANCH  19  20
BRANCH  19  22
HETATM   22  C22 UNL     1       0.291  50.514 -13.114  1.00  0.00     0.113 C 
HETATM   23  C23 UNL     1       1.209  49.294 -12.905  1.00  0.00     0.052 C 
BRANCH  22  24
HETATM   24  O6  UNL     1      -1.021  49.892 -13.418  1.00  0.00    -0.384 OA
HETATM   25  H31 UNL     1      -0.985  49.647 -14.367  1.00  0.00     0.210 HD
ENDBRANCH  22  24
BRANCH  22  26
HETATM   26  C24 UNL     1       0.682  51.316 -14.407  1.00  0.00     0.173 C 
HETATM   27  C25 UNL     1       2.150  51.310 -14.833  1.00  0.00     0.070 C 
HETATM   28  C26 UNL     1       2.292  52.019 -16.157  1.00  0.00    -0.067 C 
HETATM   29  C27 UNL     1       3.614  52.703 -16.375  1.00  0.00     0.044 C 
HETATM   30  C28 UNL     1       1.283  51.990 -17.054  1.00  0.00     0.042 C 
HETATM   31  C30 UNL     1       0.056  51.201 -16.762  1.00  0.00     0.292 C 
HETATM   32  O8  UNL     1      -0.804  50.986 -17.607  1.00  0.00    -0.260 OA
HETATM   33  O9  UNL     1      -0.062  50.695 -15.508  1.00  0.00    -0.309 OA
BRANCH  30  34
HETATM   34  C29 UNL     1       1.300  52.658 -18.397  1.00  0.00     0.209 C 
BRANCH  34  35
HETATM   35  O7  UNL     1       0.257  53.625 -18.454  1.00  0.00    -0.396 OA
HETATM   36  H40 UNL     1       0.508  54.268 -19.139  1.00  0.00     0.209 HD
ENDBRANCH  34  35
ENDBRANCH  30  34
ENDBRANCH  22  26
ENDBRANCH  19  22
BRANCH   1  37
HETATM   37  C3  UNL     1       0.402  51.565  -9.234  1.00  0.00     0.194 C 
BRANCH  37  38
HETATM   38  O2  UNL     1      -0.547  52.622  -9.002  1.00  0.00    -0.321 OA
BRANCH  38  39
HETATM   39  C2  UNL     1      -1.601  52.273  -8.218  1.00  0.00     0.254 C 
HETATM   40  C1  UNL     1      -1.574  53.059  -6.945  1.00  0.00     0.126 C 
HETATM   41  O1  UNL     1      -2.469  51.463  -8.513  1.00  0.00    -0.266 OA
ENDBRANCH  38  39
ENDBRANCH  37  38
ENDBRANCH   1  37
BRANCH  16  42
HETATM   42  O4  UNL     1       1.894  53.270 -12.349  1.00  0.00    -0.388 OA
HETATM   43  H22 UNL     1       2.838  53.491 -12.283  1.00  0.00     0.210 HD
ENDBRANCH  16  42
TORSDOF 10
ENDMDL
