MODEL 1
REMARK minimizedAffinity -6.86167383
REMARK CNNscore 0.802729785
REMARK CNNaffinity 7.32538605
REMARK  9 active torsions:
REMARK  status: ('A' for Active; 'I' for Inactive)
REMARK    1  A    between atoms: C2_2  and  C3_3 
REMARK    2  A    between atoms: C2_2  and  C9_12 
REMARK    3  A    between atoms: C3_3  and  C4_4 
REMARK    4  A    between atoms: C4_4  and  C5_5 
REMARK    5  A    between atoms: C5_5  and  O1_6 
REMARK    6  A    between atoms: C5_5  and  C6_7 
REMARK    7  A    between atoms: C6_7  and  O2_9 
REMARK    8  A    between atoms: C6_7  and  C8_10 
REMARK    9  A    between atoms: C8_10  and  O3_11 
ROOT
HETATM    1  C9  UNL     1      -1.844  52.346  -9.872  1.00  0.00    -0.002 C 
HETATM    2  C10 UNL     1      -1.161  51.012 -10.284  1.00  0.00     0.007 C 
HETATM    3  C11 UNL     1       0.363  51.222 -10.148  1.00  0.00     0.015 C 
HETATM    4  C12 UNL     1       0.517  52.496  -9.289  1.00  0.00    -0.005 C 
HETATM    5  C13 UNL     1       0.343  52.055  -7.801  1.00  0.00     0.021 C 
HETATM    6  C14 UNL     1       1.815  53.297  -9.278  1.00  0.00    -0.000 C 
HETATM    7  C15 UNL     1       1.818  54.642  -9.067  1.00  0.00    -0.060 C 
HETATM    8  C16 UNL     1       0.502  55.417  -8.939  1.00  0.00     0.036 C 
HETATM    9  C17 UNL     1      -0.809  54.607  -8.986  1.00  0.00     0.015 C 
HETATM   10  C18 UNL     1      -0.663  53.369  -9.882  1.00  0.00    -0.028 C 
HETATM   11  C19 UNL     1      -0.384  53.852 -11.336  1.00  0.00     0.016 C 
HETATM   12  C20 UNL     1       3.132  55.470  -9.011  1.00  0.00    -0.014 C 
HETATM   13  C21 UNL     1       3.414  55.915 -10.462  1.00  0.00     0.020 C 
HETATM   14  C22 UNL     1       2.995  56.729  -8.111  1.00  0.00     0.021 C 
HETATM   15  C23 UNL     1       4.314  57.456  -7.887  1.00  0.00     0.080 C 
HETATM   16  C24 UNL     1       5.265  56.514  -7.204  1.00  0.00     0.135 C 
HETATM   17  O4  UNL     1       5.747  56.800  -6.111  1.00  0.00    -0.297 OA
HETATM   18  C25 UNL     1       5.588  55.206  -7.938  1.00  0.00     0.018 C 
HETATM   19  C26 UNL     1       6.313  54.267  -6.938  1.00  0.00     0.023 C 
HETATM   20  C27 UNL     1       6.581  55.504  -9.067  1.00  0.00     0.023 C 
HETATM   21  C28 UNL     1       4.236  54.541  -8.383  1.00  0.00     0.020 C 
HETATM   22  C29 UNL     1       4.419  53.296  -9.255  1.00  0.00     0.090 C 
HETATM   23  C30 UNL     1       3.115  52.558  -9.452  1.00  0.00     0.157 C 
HETATM   24  O5  UNL     1       3.136  51.372  -9.770  1.00  0.00    -0.293 OA
ENDROOT
BRANCH   1  25
HETATM   25  C2  UNL     1      -3.209  52.593 -10.592  1.00  0.00    -0.014 C 
HETATM   26  C1  UNL     1      -3.774  54.013 -10.518  1.00  0.00     0.010 C 
BRANCH  25  27
HETATM   27  C3  UNL     1      -4.263  51.544 -10.166  1.00  0.00     0.007 C 
BRANCH  27  28
HETATM   28  C4  UNL     1      -4.508  50.394 -11.169  1.00  0.00     0.035 C 
BRANCH  28  29
HETATM   29  C5  UNL     1      -5.746  49.535 -10.867  1.00  0.00     0.154 C 
BRANCH  29  30
HETATM   30  O1  UNL     1      -6.706  50.334 -10.157  1.00  0.00    -0.392 OA
HETATM   31  H10 UNL     1      -7.389  49.692  -9.868  1.00  0.00     0.210 HD
ENDBRANCH  29  30
BRANCH  29  32
HETATM   32  C6  UNL     1      -5.483  48.249 -10.032  1.00  0.00     0.101 C 
HETATM   33  C7  UNL     1      -4.021  47.771 -10.098  1.00  0.00     0.051 C 
BRANCH  32  34
HETATM   34  O2  UNL     1      -5.724  48.621  -8.654  1.00  0.00    -0.385 OA
HETATM   35  H14 UNL     1      -5.654  47.791  -8.133  1.00  0.00     0.210 HD
ENDBRANCH  32  34
BRANCH  32  36
HETATM   36  C8  UNL     1      -6.465  47.118 -10.392  1.00  0.00     0.204 C 
BRANCH  36  37
HETATM   37  O3  UNL     1      -7.585  47.650 -11.108  1.00  0.00    -0.398 OA
HETATM   38  H17 UNL     1      -8.317  47.765 -10.470  1.00  0.00     0.209 HD
ENDBRANCH  36  37
ENDBRANCH  32  36
ENDBRANCH  29  32
ENDBRANCH  28  29
ENDBRANCH  27  28
ENDBRANCH  25  27
ENDBRANCH   1  25
TORSDOF 9
ENDMDL
