MODEL 1
REMARK minimizedAffinity -7.1568718
REMARK CNNscore 0.209087074
REMARK CNNaffinity 6.12260437
REMARK  30 active torsions:
REMARK  status: ('A' for Active; 'I' for Inactive)
REMARK    1  A    between atoms: C2_2  and  C3_3 
REMARK    2  A    between atoms: C3_3  and  C4_4 
REMARK    3  A    between atoms: C4_4  and  C5_5 
REMARK    4  A    between atoms: C5_5  and  C6_6 
REMARK    5  A    between atoms: C6_6  and  C7_7 
REMARK    6  A    between atoms: C7_7  and  C8_8 
REMARK    7  A    between atoms: C8_8  and  C9_9 
REMARK    8  A    between atoms: C9_9  and  C10_10 
REMARK    9  A    between atoms: C10_10  and  C11_11 
REMARK   10  A    between atoms: C11_11  and  C12_12 
REMARK   11  A    between atoms: C12_12  and  C13_13 
REMARK   12  A    between atoms: C13_13  and  C14_14 
REMARK   13  A    between atoms: C14_14  and  C15_15 
REMARK   14  A    between atoms: C15_15  and  C16_16 
REMARK   15  A    between atoms: C16_16  and  N1_17 
REMARK       I    between atoms: N1_17  and  C17_18 
REMARK   16  A    between atoms: C17_18  and  C18_20 
REMARK   17  A    between atoms: C18_20  and  N2_21 
REMARK   18  A    between atoms: C18_20  and  C19_22 
REMARK   19  A    between atoms: C19_22  and  C20_23 
REMARK   20  A    between atoms: C23_26  and  O2_27 
REMARK   21  A    between atoms: O2_27  and  P1_28 
REMARK   22  A    between atoms: P1_28  and  O4_30 
REMARK   23  A    between atoms: P1_28  and  C24_31 
REMARK   24  A    between atoms: C24_31  and  O5_32 
REMARK   25  A    between atoms: O5_32  and  C25_33 
REMARK   26  A    between atoms: C25_33  and  C26_34 
REMARK   27  A    between atoms: C25_33  and  C27_36 
REMARK   28  A    between atoms: C26_34  and  O6_35 
REMARK   29  A    between atoms: C27_36  and  N3_37 
REMARK   30  A    between atoms: C30_40  and  N4_41 
ROOT
HETATM    1  C20 UNL     1      -6.467   4.190  12.894  1.00  0.00    -0.056 A 
HETATM    2  C21 UNL     1      -6.507   2.999  12.159  1.00  0.00     0.010 A 
HETATM    3  C22 UNL     1      -5.325   2.341  11.815  1.00  0.00     0.038 A 
HETATM    4  C23 UNL     1      -4.091   2.856  12.210  1.00  0.00     0.078 A 
HETATM    5  C32 UNL     1      -4.037   4.040  12.941  1.00  0.00     0.038 A 
HETATM    6  C33 UNL     1      -5.221   4.701  13.281  1.00  0.00     0.010 A 
ENDROOT
BRANCH   1   7
HETATM    7  C19 UNL     1      -7.740   4.921  13.253  1.00  0.00     0.083 C 
BRANCH   7   8
HETATM    8  C18 UNL     1      -7.757   5.607  14.632  1.00  0.00     0.313 C 
BRANCH   8   9
HETATM    9  C17 UNL     1      -8.870   6.672  14.771  1.00  0.00     0.251 C 
HETATM   10  N1  UNL     1     -10.126   6.259  14.379  1.00  0.00    -0.359 N 
HETATM   11  H34 UNL     1     -10.279   5.295  14.102  1.00  0.00     0.162 HD
HETATM   12  O1  UNL     1      -8.643   7.820  15.157  1.00  0.00    -0.271 OA
BRANCH  10  13
HETATM   13  C16 UNL     1     -11.257   7.160  14.446  1.00  0.00     0.122 C 
BRANCH  13  14
HETATM   14  C15 UNL     1     -12.529   6.507  13.910  1.00  0.00     0.020 C 
BRANCH  14  15
HETATM   15  C14 UNL     1     -13.726   6.650  14.855  1.00  0.00     0.002 C 
BRANCH  15  16
HETATM   16  C13 UNL     1     -14.754   5.513  14.790  1.00  0.00     0.000 C 
BRANCH  16  17
HETATM   17  C12 UNL     1     -16.218   5.968  14.833  1.00  0.00     0.000 C 
BRANCH  17  18
HETATM   18  C11 UNL     1     -17.241   5.041  14.177  1.00  0.00     0.000 C 
BRANCH  18  19
HETATM   19  C10 UNL     1     -17.282   3.641  14.796  1.00  0.00     0.000 C 
BRANCH  19  20
HETATM   20  C9  UNL     1     -16.876   2.581  13.769  1.00  0.00     0.000 C 
BRANCH  20  21
HETATM   21  C8  UNL     1     -15.607   1.817  14.154  1.00  0.00     0.000 C 
BRANCH  21  22
HETATM   22  C7  UNL     1     -15.664   0.300  13.953  1.00  0.00     0.000 C 
BRANCH  22  23
HETATM   23  C6  UNL     1     -15.762  -0.176  12.499  1.00  0.00     0.000 C 
BRANCH  23  24
HETATM   24  C5  UNL     1     -15.384  -1.649  12.317  1.00  0.00     0.000 C 
BRANCH  24  25
HETATM   25  C4  UNL     1     -15.510  -2.479  13.597  1.00  0.00     0.000 C 
BRANCH  25  26
HETATM   26  C3  UNL     1     -14.223  -3.140  14.100  1.00  0.00    -0.000 C 
BRANCH  26  27
HETATM   27  C2  UNL     1     -13.279  -3.568  12.976  1.00  0.00    -0.005 C 
HETATM   28  C1  UNL     1     -13.642  -4.946  12.443  1.00  0.00     0.005 C 
ENDBRANCH  26  27
ENDBRANCH  25  26
ENDBRANCH  24  25
ENDBRANCH  23  24
ENDBRANCH  22  23
ENDBRANCH  21  22
ENDBRANCH  20  21
ENDBRANCH  19  20
ENDBRANCH  18  19
ENDBRANCH  17  18
ENDBRANCH  16  17
ENDBRANCH  15  16
ENDBRANCH  14  15
ENDBRANCH  13  14
ENDBRANCH  10  13
ENDBRANCH   8   9
BRANCH   8  29
HETATM   29  N2  UNL     1      -7.855   4.632  15.747  1.00  0.00     0.092 N 
HETATM   30  H36 UNL     1      -7.929   5.174  16.611  1.00  0.00     0.313 HD
HETATM   31  H37 UNL     1      -8.782   4.200  15.679  1.00  0.00     0.313 HD
ENDBRANCH   8  29
ENDBRANCH   7   8
ENDBRANCH   1   7
BRANCH   4  32
HETATM   32  O2  UNL     1      -2.992   2.154  11.809  1.00  0.00    -0.275 OA
BRANCH  32  33
HETATM   33  P1  UNL     1      -1.863   2.710  10.803  1.00  0.00     0.267 P 
HETATM   34  O3  UNL     1      -2.351   3.712   9.798  1.00  0.00    -0.652 OA
BRANCH  33  35
HETATM   35  O4  UNL     1      -1.420   1.346  10.068  1.00  0.00    -0.327 OA
HETATM   36  H42 UNL     1      -2.029   1.099   9.346  1.00  0.00     0.220 HD
ENDBRANCH  33  35
BRANCH  33  37
HETATM   37  C24 UNL     1      -0.466   3.158  11.844  1.00  0.00     0.293 C 
BRANCH  37  38
HETATM   38  O5  UNL     1      -0.297   4.585  11.872  1.00  0.00    -0.371 OA
BRANCH  38  39
HETATM   39  C25 UNL     1       0.223   5.095  13.116  1.00  0.00     0.164 C 
BRANCH  39  40
HETATM   40  C26 UNL     1      -0.933   5.632  13.977  1.00  0.00     0.197 C 
BRANCH  40  41
HETATM   41  O6  UNL     1      -0.594   5.619  15.364  1.00  0.00    -0.398 OA
HETATM   42  H48 UNL     1       0.108   6.279  15.496  1.00  0.00     0.209 HD
ENDBRANCH  40  41
ENDBRANCH  39  40
BRANCH  39  43
HETATM   43  C27 UNL     1       1.195   6.243  12.780  1.00  0.00     0.167 C 
BRANCH  43  44
HETATM   44  N3  UNL     1       1.447   6.338  11.339  1.00  0.00    -0.307 N 
HETATM   45  C28 UNL     1       2.478   5.619  10.783  1.00  0.00     0.099 A 
HETATM   46  C29 UNL     1       2.794   5.757   9.497  1.00  0.00     0.059 A 
HETATM   47  C30 UNL     1       1.989   6.734   8.742  1.00  0.00     0.082 A 
HETATM   48  N5  UNL     1       1.026   7.431   9.263  1.00  0.00    -0.299 N 
HETATM   49  C31 UNL     1       0.712   7.263  10.591  1.00  0.00     0.327 A 
ATOM     50  H5  UNL     1       0.506   8.097   8.691  1.00  0.00     0.171 HD
HETATM   51  O7  UNL     1      -0.182   7.927  11.116  1.00  0.00    -0.246 OA
BRANCH  47  52
HETATM   52  N4  UNL     1       2.262   6.948   7.418  1.00  0.00    -0.288 NA
HETATM   53  H53 UNL     1       3.240   6.901   7.158  1.00  0.00     0.125 HD
HETATM   54  H54 UNL     1       1.804   7.784   7.072  1.00  0.00     0.125 HD
ENDBRANCH  47  52
ENDBRANCH  43  44
ENDBRANCH  39  43
ENDBRANCH  38  39
ENDBRANCH  37  38
ENDBRANCH  33  37
ENDBRANCH  32  33
ENDBRANCH   4  32
TORSDOF 30
ENDMDL
