MODEL 1
REMARK minimizedAffinity -6.25281382
REMARK CNNscore 0.580280721
REMARK CNNaffinity 6.3396821
REMARK  6 active torsions:
REMARK  status: ('A' for Active; 'I' for Inactive)
REMARK    1  A    between atoms: O1_2  and  C2_3 
REMARK    2  A    between atoms: C17_20  and  C18_21 
REMARK    3  A    between atoms: C22_27  and  O6_28 
REMARK    4  A    between atoms: O6_28  and  C23_29 
REMARK    5  A    between atoms: C26_33  and  O8_34 
REMARK    6  A    between atoms: C31_40  and  O10_41 
ROOT
HETATM    1  C2  UNL     1     -14.617  10.582  -2.308  1.00  0.00     0.190 C 
HETATM    2  C3  UNL     1     -15.432  10.256  -3.567  1.00  0.00     0.064 C 
HETATM    3  C4  UNL     1     -15.505  11.422  -4.539  1.00  0.00     0.174 C 
HETATM    4  O2  UNL     1     -15.586  12.639  -3.819  1.00  0.00    -0.356 OA
HETATM    5  C5  UNL     1     -14.351  12.982  -3.166  1.00  0.00     0.325 C 
HETATM    6  O3  UNL     1     -14.668  14.047  -2.257  1.00  0.00    -0.344 OA
HETATM    7  C6  UNL     1     -13.937  14.033  -1.036  1.00  0.00     0.177 C 
HETATM    8  C7  UNL     1     -13.795  15.442  -0.548  1.00  0.00     0.011 C 
HETATM    9  C8  UNL     1     -12.685  15.925   0.044  1.00  0.00    -0.072 C 
HETATM   10  C9  UNL     1     -12.613  17.367   0.476  1.00  0.00     0.035 C 
HETATM   11  C10 UNL     1     -12.249  17.479   1.952  1.00  0.00     0.012 C 
HETATM   12  C11 UNL     1     -10.939  16.733   2.289  1.00  0.00     0.026 C 
HETATM   13  C12 UNL     1     -11.042  15.244   1.846  1.00  0.00     0.005 C 
HETATM   14  C13 UNL     1      -9.759  14.484   2.219  1.00  0.00     0.007 C 
HETATM   15  C14 UNL     1      -9.454  14.597   3.709  1.00  0.00     0.013 C 
HETATM   16  C15 UNL     1      -9.291  16.064   4.202  1.00  0.00    -0.003 C 
HETATM   17  C16 UNL     1      -7.954  16.610   3.663  1.00  0.00     0.019 C 
HETATM   18  C17 UNL     1      -9.362  16.069   5.769  1.00  0.00     0.058 C 
HETATM   19  C22 UNL     1     -10.889  16.012   6.060  1.00  0.00     0.143 C 
HETATM   20  C25 UNL     1     -11.613  16.545   4.811  1.00  0.00     0.072 C 
HETATM   21  C26 UNL     1     -10.526  16.910   3.781  1.00  0.00     0.072 C 
HETATM   22  C27 UNL     1     -11.443  15.070   0.330  1.00  0.00    -0.014 C 
HETATM   23  C28 UNL     1     -10.313  15.523  -0.628  1.00  0.00     0.020 C 
HETATM   24  C29 UNL     1     -11.735  13.561   0.054  1.00  0.00     0.049 C 
HETATM   25  C30 UNL     1     -12.578  13.352  -1.200  1.00  0.00     0.159 C 
HETATM   26  O9  UNL     1     -12.827  11.959  -1.379  1.00  0.00    -0.341 OA
HETATM   27  C31 UNL     1     -13.594  11.716  -2.567  1.00  0.00     0.240 C 
ENDROOT
BRANCH  18  28
HETATM   28  C18 UNL     1      -8.600  17.119   6.548  1.00  0.00    -0.043 A 
HETATM   29  C19 UNL     1      -9.153  17.959   7.425  1.00  0.00     0.087 A 
HETATM   30  C20 UNL     1      -8.109  18.876   7.875  1.00  0.00     0.283 A 
HETATM   31  O4  UNL     1      -8.275  19.778   8.676  1.00  0.00    -0.260 OA
HETATM   32  O5  UNL     1      -6.949  18.571   7.243  1.00  0.00    -0.314 OA
HETATM   33  C21 UNL     1      -7.155  17.426   6.408  1.00  0.00     0.214 A 
ENDBRANCH  18  28
BRANCH  19  34
HETATM   34  O6  UNL     1     -11.245  16.739   7.244  1.00  0.00    -0.316 OA
BRANCH  34  35
HETATM   35  C23 UNL     1     -12.481  16.475   7.751  1.00  0.00     0.255 C 
HETATM   36  C24 UNL     1     -13.190  17.756   8.069  1.00  0.00     0.126 C 
HETATM   37  O7  UNL     1     -12.964  15.362   7.895  1.00  0.00    -0.266 OA
ENDBRANCH  34  35
ENDBRANCH  19  34
BRANCH  21  38
HETATM   38  O8  UNL     1     -10.215  18.297   3.977  1.00  0.00    -0.389 OA
HETATM   39  H35 UNL     1     -11.023  18.824   3.852  1.00  0.00     0.210 HD
ENDBRANCH  21  38
BRANCH  27  40
HETATM   40  O10 UNL     1     -12.647  11.232  -3.534  1.00  0.00    -0.360 OA
HETATM   41  H42 UNL     1     -12.416  10.347  -3.184  1.00  0.00     0.213 HD
ENDBRANCH  27  40
BRANCH   1  42
HETATM   42  O1  UNL     1     -13.892   9.396  -1.905  1.00  0.00    -0.385 OA
HETATM   43  C1  UNL     1     -13.842   9.232  -0.493  1.00  0.00     0.202 C 
ENDBRANCH   1  42
TORSDOF 6
ENDMDL
