MODEL 1
REMARK minimizedAffinity -9.58130646
REMARK  7 active torsions:
REMARK  status: ('A' for Active; 'I' for Inactive)
REMARK    1  A    between atoms: C2_2  and  C30_33 
REMARK    2  A    between atoms: C3_3  and  C4_4 
REMARK    3  A    between atoms: C4_4  and  O1_5 
REMARK    4  A    between atoms: C4_4  and  C5_6 
REMARK    5  A    between atoms: C5_6  and  C6_7 
REMARK    6  A    between atoms: C6_7  and  C8_9 
REMARK    7  A    between atoms: C30_33  and  O5_35 
ROOT
HETATM    1  C8  UNL     1      -6.073   7.312  14.353  1.00  0.00    -0.002 C 
HETATM    2  C9  UNL     1      -5.775   8.640  15.109  1.00  0.00     0.007 C 
HETATM    3  C10 UNL     1      -4.274   8.941  14.952  1.00  0.00     0.015 C 
HETATM    4  C11 UNL     1      -3.792   7.996  13.836  1.00  0.00    -0.005 C 
HETATM    5  C12 UNL     1      -4.130   8.683  12.477  1.00  0.00     0.021 C 
HETATM    6  C13 UNL     1      -2.319   7.627  13.733  1.00  0.00    -0.000 C 
HETATM    7  C14 UNL     1      -1.920   6.436  13.219  1.00  0.00    -0.060 C 
HETATM    8  C15 UNL     1      -2.962   5.390  12.792  1.00  0.00     0.036 C 
HETATM    9  C16 UNL     1      -4.451   5.728  13.008  1.00  0.00     0.015 C 
HETATM   10  C17 UNL     1      -4.647   6.709  14.171  1.00  0.00    -0.028 C 
HETATM   11  C18 UNL     1      -4.213   6.011  15.500  1.00  0.00     0.016 C 
HETATM   12  C19 UNL     1      -0.436   6.026  13.052  1.00  0.00    -0.014 C 
HETATM   13  C20 UNL     1      -0.118   4.991  14.168  1.00  0.00     0.020 C 
HETATM   14  C21 UNL     1      -0.209   5.336  11.674  1.00  0.00     0.021 C 
HETATM   15  C22 UNL     1       1.223   5.450  11.183  1.00  0.00     0.080 C 
HETATM   16  C23 UNL     1       1.531   6.902  10.903  1.00  0.00     0.135 C 
HETATM   17  O2  UNL     1       2.220   7.210   9.930  1.00  0.00    -0.297 OA
HETATM   18  C24 UNL     1       0.967   7.953  11.879  1.00  0.00     0.018 C 
HETATM   19  C25 UNL     1       2.100   8.974  12.132  1.00  0.00     0.023 C 
HETATM   20  C26 UNL     1      -0.181   8.684  11.168  1.00  0.00     0.023 C 
HETATM   21  C27 UNL     1       0.567   7.231  13.218  1.00  0.00     0.020 C 
HETATM   22  C28 UNL     1       0.113   8.157  14.351  1.00  0.00     0.090 C 
HETATM   23  C29 UNL     1      -1.300   8.630  14.166  1.00  0.00     0.157 C 
HETATM   24  O3  UNL     1      -1.606   9.797  14.389  1.00  0.00    -0.293 OA
ENDROOT
BRANCH   1  25
HETATM   25  C6  UNL     1      -7.205   6.487  15.049  1.00  0.00    -0.011 C 
HETATM   26  C7  UNL     1      -7.106   6.538  16.575  1.00  0.00     0.010 C 
BRANCH  25  27
HETATM   27  C5  UNL     1      -7.183   5.017  14.521  1.00  0.00     0.040 C 
BRANCH  27  28
HETATM   28  C4  UNL     1      -7.827   4.803  13.138  1.00  0.00     0.142 C 
BRANCH  28  29
HETATM   29  C3  UNL     1      -6.878   4.178  12.155  1.00  0.00     0.018 C 
HETATM   30  C2  UNL     1      -6.615   2.860  12.034  1.00  0.00     0.010 C 
HETATM   31  C1  UNL     1      -7.209   1.772  12.880  1.00  0.00     0.055 C 
BRANCH  30  32
HETATM   32  C30 UNL     1      -5.631   2.472  10.993  1.00  0.00     0.171 C 
HETATM   33  O4  UNL     1      -5.044   3.220  10.232  1.00  0.00    -0.646 OA
BRANCH  32  34
HETATM   34  O5  UNL     1      -5.424   1.145  10.954  1.00  0.00    -0.773 OA
HETATM   35  H44 UNL     1      -4.763   1.038  10.240  1.00  0.00     0.167 HD
ENDBRANCH  32  34
ENDBRANCH  30  32
ENDBRANCH  28  29
BRANCH  28  36
HETATM   36  O1  UNL     1      -8.935   3.917  13.257  1.00  0.00    -0.392 OA
HETATM   37  H6  UNL     1      -8.583   3.025  13.422  1.00  0.00     0.210 HD
ENDBRANCH  28  36
ENDBRANCH  27  28
ENDBRANCH  25  27
ENDBRANCH   1  25
TORSDOF 7
ENDMDL
