MODEL 1
REMARK minimizedAffinity -6.20572138
REMARK CNNscore 0.666093767
REMARK CNNaffinity 6.92492867
REMARK  4 active torsions:
REMARK  status: ('A' for Active; 'I' for Inactive)
REMARK    1  A    between atoms: C4_4  and  C5_5 
REMARK    2  A    between atoms: C5_5  and  C6_6 
REMARK    3  A    between atoms: C6_6  and  C7_7 
REMARK    4  A    between atoms: C7_7  and  C9_9 
ROOT
HETATM    1  C9  UNL     1      -1.866  15.255   4.367  1.00  0.00    -0.002 C 
HETATM    2  C10 UNL     1      -2.738  15.122   3.080  1.00  0.00     0.006 C 
HETATM    3  C11 UNL     1      -1.792  14.796   1.908  1.00  0.00     0.011 C 
HETATM    4  C12 UNL     1      -0.460  14.415   2.575  1.00  0.00    -0.032 C 
HETATM    5  C13 UNL     1      -0.632  12.916   3.017  1.00  0.00     0.016 C 
HETATM    6  C14 UNL     1       0.845  14.468   1.711  1.00  0.00     0.004 C 
HETATM    7  C15 UNL     1       0.743  15.219   0.383  1.00  0.00     0.007 C 
HETATM    8  C16 UNL     1       2.036  15.167  -0.448  1.00  0.00     0.007 C 
HETATM    9  C17 UNL     1       3.250  14.466   0.218  1.00  0.00     0.010 C 
HETATM   10  C18 UNL     1       4.587  14.701  -0.560  1.00  0.00     0.018 C 
HETATM   11  C19 UNL     1       4.500  14.086  -1.972  1.00  0.00     0.023 C 
HETATM   12  C20 UNL     1       4.969  16.184  -0.708  1.00  0.00     0.023 C 
HETATM   13  C21 UNL     1       5.717  14.004   0.212  1.00  0.00     0.135 C 
HETATM   14  O1  UNL     1       6.508  13.224  -0.319  1.00  0.00    -0.297 OA
HETATM   15  C22 UNL     1       5.863  14.359   1.672  1.00  0.00     0.080 C 
HETATM   16  C23 UNL     1       4.556  14.082   2.387  1.00  0.00     0.018 C 
HETATM   17  C24 UNL     1       3.387  14.786   1.723  1.00  0.00    -0.026 A 
HETATM   18  C25 UNL     1       2.938  16.131   2.221  1.00  0.00     0.021 A 
HETATM   19  C26 UNL     1       2.079  14.906   2.529  1.00  0.00    -0.027 A 
HETATM   20  C27 UNL     1       2.006  14.525   4.001  1.00  0.00     0.011 C 
HETATM   21  C28 UNL     1       0.743  15.047   4.719  1.00  0.00     0.011 C 
HETATM   22  C29 UNL     1      -0.423  15.426   3.781  1.00  0.00    -0.032 C 
HETATM   23  C30 UNL     1      -0.252  16.912   3.348  1.00  0.00     0.016 C 
ENDROOT
BRANCH   1  24
HETATM   24  C7  UNL     1      -2.444  16.304   5.367  1.00  0.00    -0.014 C 
HETATM   25  C8  UNL     1      -2.676  15.702   6.757  1.00  0.00     0.010 C 
BRANCH  24  26
HETATM   26  C6  UNL     1      -3.770  16.895   4.808  1.00  0.00     0.008 C 
BRANCH  26  27
HETATM   27  C5  UNL     1      -4.651  17.582   5.860  1.00  0.00     0.028 C 
BRANCH  27  28
HETATM   28  C4  UNL     1      -6.096  17.198   5.678  1.00  0.00    -0.025 C 
HETATM   29  C2  UNL     1      -7.140  17.463   6.488  1.00  0.00    -0.091 C 
HETATM   30  C1  UNL     1      -8.527  17.001   6.122  1.00  0.00     0.042 C 
HETATM   31  C3  UNL     1      -7.069  18.214   7.789  1.00  0.00     0.042 C 
ENDBRANCH  27  28
ENDBRANCH  26  27
ENDBRANCH  24  26
ENDBRANCH   1  24
TORSDOF 4
ENDMDL
