MODEL 1
REMARK minimizedAffinity -7.99968815
REMARK  3 active torsions:
REMARK  status: ('A' for Active; 'I' for Inactive)
REMARK    1  A    between atoms: C2_2  and  C3_3 
REMARK    2  A    between atoms: C3_3  and  C4_4 
REMARK    3  A    between atoms: C4_4  and  O1_5 
ROOT
HETATM    1  C3  UNL     1      -3.292  51.061 -24.938  1.00  0.00     0.017 C 
HETATM    2  C5  UNL     1      -3.809  49.953 -25.937  1.00  0.00     0.016 C 
HETATM    3  C6  UNL     1      -3.555  48.509 -25.499  1.00  0.00     0.031 C 
HETATM    4  C7  UNL     1      -3.567  48.352 -23.989  1.00  0.00     0.273 C 
HETATM    5  N1  UNL     1      -2.552  49.174 -23.332  1.00  0.00     0.100 N 
HETATM    6  C8  UNL     1      -2.910  49.423 -21.916  1.00  0.00     0.278 C 
HETATM    7  C9  UNL     1      -1.792  50.076 -21.079  1.00  0.00     0.072 C 
HETATM    8  C10 UNL     1      -1.114  51.145 -21.850  1.00  0.00    -0.019 A 
HETATM    9  C11 UNL     1      -1.283  51.263 -23.216  1.00  0.00     0.051 A 
HETATM   10  N2  UNL     1      -0.405  52.224 -23.646  1.00  0.00    -0.357 N 
HETATM   11  C12 UNL     1       0.240  52.802 -22.574  1.00  0.00     0.043 A 
HETATM   12  C13 UNL     1       1.174  53.844 -22.539  1.00  0.00     0.030 A 
HETATM   13  C14 UNL     1       1.690  54.210 -21.292  1.00  0.00     0.002 A 
HETATM   14  C15 UNL     1       1.291  53.553 -20.130  1.00  0.00     0.001 A 
HETATM   15  C16 UNL     1       0.358  52.511 -20.183  1.00  0.00     0.014 A 
HETATM   16  C17 UNL     1      -0.186  52.133 -21.426  1.00  0.00    -0.001 A 
HETATM   17  C18 UNL     1      -2.138  50.390 -24.095  1.00  0.00     0.283 C 
HETATM   18  H19 UNL     1      -0.257  52.495 -24.606  1.00  0.00     0.166 HD
ENDROOT
BRANCH   1  19
HETATM   19  C2  UNL     1      -2.782  52.233 -25.856  1.00  0.00     0.010 C 
HETATM   20  C1  UNL     1      -2.536  51.954 -27.336  1.00  0.00     0.006 C 
ENDBRANCH   1  19
BRANCH   1  21
HETATM   21  C4  UNL     1      -4.512  51.533 -24.102  1.00  0.00     0.176 C 
BRANCH  21  22
HETATM   22  O1  UNL     1      -5.732  50.934 -24.504  1.00  0.00    -0.400 OA
HETATM   23  H8  UNL     1      -6.440  51.303 -23.951  1.00  0.00     0.209 HD
ENDBRANCH  21  22
ENDBRANCH   1  21
TORSDOF 3
ENDMDL
