MODEL 1
REMARK minimizedAffinity -9.64853477
REMARK  8 active torsions:
REMARK  status: ('A' for Active; 'I' for Inactive)
REMARK    1  A    between atoms: C5_5  and  O1_6 
REMARK    2  A    between atoms: C9_10  and  C10_11 
REMARK    3  A    between atoms: C10_11  and  C11_12 
REMARK    4  A    between atoms: C11_12  and  C12_13 
REMARK    5  A    between atoms: C14_15  and  C15_16 
REMARK    6  A    between atoms: C15_16  and  C16_17 
REMARK    7  A    between atoms: C16_17  and  C17_18 
REMARK    8  A    between atoms: C23_24  and  O2_25 
ROOT
HETATM    1  C12 UNL     1      -4.012  48.486 -26.555  1.00  0.00    -0.087 C 
HETATM    2  C13 UNL     1      -2.523  48.722 -26.488  1.00  0.00     0.043 C 
HETATM    3  C14 UNL     1      -4.814  48.405 -25.472  1.00  0.00    -0.024 C 
ENDROOT
BRANCH   3   4
HETATM    4  C15 UNL     1      -4.381  48.531 -24.036  1.00  0.00     0.030 C 
BRANCH   4   5
HETATM    5  C16 UNL     1      -2.937  49.013 -23.807  1.00  0.00     0.042 C 
BRANCH   5   6
HETATM    6  C17 UNL     1      -2.711  50.270 -22.920  1.00  0.00     0.065 C 
HETATM    7  C18 UNL     1      -3.877  51.265 -23.062  1.00  0.00     0.046 C 
HETATM    8  C19 UNL     1      -2.557  49.767 -21.469  1.00  0.00     0.043 C 
HETATM    9  C20 UNL     1      -2.179  50.893 -20.523  1.00  0.00     0.044 C 
HETATM   10  C21 UNL     1      -1.078  51.720 -21.114  1.00  0.00    -0.021 A 
HETATM   11  C22 UNL     1      -0.327  52.564 -20.282  1.00  0.00     0.046 A 
HETATM   12  C27 UNL     1      -0.812  51.689 -22.490  1.00  0.00     0.082 A 
HETATM   13  C23 UNL     1       0.689  53.344 -20.821  1.00  0.00     0.066 A 
HETATM   14  C24 UNL     1       0.970  53.304 -22.181  1.00  0.00     0.046 A 
HETATM   15  C25 UNL     1       0.225  52.473 -23.027  1.00  0.00    -0.025 A 
HETATM   16  C26 UNL     1       0.522  52.443 -24.497  1.00  0.00     0.051 C 
HETATM   17  O3  UNL     1      -1.501  50.902 -23.375  1.00  0.00    -0.340 OA
BRANCH  13  18
HETATM   18  O2  UNL     1       1.442  54.169 -20.040  1.00  0.00    -0.361 OA
HETATM   19  H36 UNL     1       1.162  54.063 -19.117  1.00  0.00     0.217 HD
ENDBRANCH  13  18
ENDBRANCH   5   6
ENDBRANCH   4   5
ENDBRANCH   3   4
BRANCH   1  20
HETATM   20  C11 UNL     1      -4.590  48.436 -27.961  1.00  0.00     0.034 C 
BRANCH  20  21
HETATM   21  C10 UNL     1      -5.894  47.623 -28.052  1.00  0.00     0.014 C 
BRANCH  21  22
HETATM   22  C9  UNL     1      -6.719  47.931 -29.330  1.00  0.00     0.024 C 
HETATM   23  C2  UNL     1      -8.140  48.447 -29.128  1.00  0.00    -0.084 C 
HETATM   24  C1  UNL     1      -8.875  48.316 -28.013  1.00  0.00     0.015 C 
HETATM   25  C3  UNL     1      -8.733  49.089 -30.368  1.00  0.00     0.036 C 
HETATM   26  C4  UNL     1      -8.256  48.399 -31.650  1.00  0.00     0.037 C 
HETATM   27  C5  UNL     1      -7.928  46.928 -31.393  1.00  0.00     0.127 C 
HETATM   28  C6  UNL     1      -6.741  46.744 -30.378  1.00  0.00    -0.014 C 
HETATM   29  C7  UNL     1      -5.383  46.713 -31.120  1.00  0.00     0.018 C 
HETATM   30  C8  UNL     1      -6.925  45.368 -29.699  1.00  0.00     0.018 C 
BRANCH  27  31
HETATM   31  O1  UNL     1      -7.684  46.267 -32.634  1.00  0.00    -0.395 OA
HETATM   32  H8  UNL     1      -7.043  46.795 -33.139  1.00  0.00     0.210 HD
ENDBRANCH  27  31
ENDBRANCH  21  22
ENDBRANCH  20  21
ENDBRANCH   1  20
TORSDOF 8
ENDMDL
