MODEL 1
REMARK minimizedAffinity -9.00286102
REMARK CNNscore 0.732243896
REMARK CNNaffinity 7.03835917
REMARK  6 active torsions:
REMARK  status: ('A' for Active; 'I' for Inactive)
REMARK    1  A    between atoms: O1_2  and  C2_3 
REMARK    2  A    between atoms: C7_9  and  C8_10 
REMARK    3  A    between atoms: C8_10  and  C9_11 
REMARK    4  A    between atoms: C9_11  and  N2_12 
REMARK       I    between atoms: N2_12  and  C10_13 
REMARK    5  A    between atoms: C10_13  and  C11_15 
REMARK    6  A    between atoms: C16_21  and  C17_22 
ROOT
HETATM    1  C11 UNL     1       1.130  51.285 -14.981  1.00  0.00     0.034 A 
HETATM    2  C12 UNL     1       0.725  49.965 -15.222  1.00  0.00     0.020 A 
HETATM    3  C13 UNL     1       0.273  49.587 -16.488  1.00  0.00     0.040 A 
HETATM    4  C14 UNL     1       0.215  50.533 -17.510  1.00  0.00     0.103 A 
HETATM    5  O3  UNL     1      -0.236  50.111 -18.731  1.00  0.00    -0.303 OA
HETATM    6  C15 UNL     1      -0.332  51.042 -19.772  1.00  0.00     0.144 A 
HETATM    7  C16 UNL     1      -0.803  50.588 -20.948  1.00  0.00     0.054 C 
HETATM    8  C23 UNL     1       0.084  52.474 -19.555  1.00  0.00     0.280 A 
HETATM    9  O4  UNL     1       0.055  53.348 -20.415  1.00  0.00    -0.265 OA
HETATM   10  N3  UNL     1       0.523  52.781 -18.296  1.00  0.00    -0.319 N 
HETATM   11  C24 UNL     1       0.600  51.848 -17.267  1.00  0.00     0.070 A 
HETATM   12  C25 UNL     1       1.056  52.237 -16.007  1.00  0.00     0.049 A 
HETATM   13  H20 UNL     1       0.791  53.746 -18.154  1.00  0.00     0.169 HD
ENDROOT
BRANCH   1  14
HETATM   14  C10 UNL     1       1.602  51.640 -13.615  1.00  0.00     0.251 C 
HETATM   15  N2  UNL     1       0.979  52.713 -13.012  1.00  0.00    -0.357 N 
HETATM   16  H12 UNL     1       0.391  53.322 -13.562  1.00  0.00     0.162 HD
HETATM   17  O2  UNL     1       2.520  51.012 -13.102  1.00  0.00    -0.268 OA
BRANCH  15  18
HETATM   18  C9  UNL     1       1.411  53.195 -11.710  1.00  0.00     0.127 C 
BRANCH  18  19
HETATM   19  C8  UNL     1       0.235  53.510 -10.782  1.00  0.00     0.060 C 
BRANCH  19  20
HETATM   20  C7  UNL     1       0.584  54.540  -9.754  1.00  0.00    -0.029 A 
HETATM   21  C6  UNL     1      -0.286  55.150  -8.872  1.00  0.00     0.096 A 
HETATM   22  N1  UNL     1       0.428  56.030  -8.103  1.00  0.00    -0.365 N 
HETATM   23  C5  UNL     1       1.755  56.005  -8.461  1.00  0.00     0.043 A 
HETATM   24  H6  UNL     1       0.043  56.616  -7.376  1.00  0.00     0.165 HD
HETATM   25  C4  UNL     1       2.841  56.725  -7.953  1.00  0.00     0.033 A 
HETATM   26  C26 UNL     1       1.884  55.082  -9.497  1.00  0.00     0.001 A 
HETATM   27  C3  UNL     1       4.102  56.495  -8.522  1.00  0.00     0.039 A 
HETATM   28  C2  UNL     1       4.269  55.579  -9.560  1.00  0.00     0.069 A 
HETATM   29  C27 UNL     1       3.163  54.871 -10.051  1.00  0.00     0.051 A 
BRANCH  28  30
HETATM   30  O1  UNL     1       5.452  55.281 -10.183  1.00  0.00    -0.356 OA
HETATM   31  C1  UNL     1       6.478  54.712  -9.381  1.00  0.00     0.210 C 
ENDBRANCH  28  30
ENDBRANCH  19  20
ENDBRANCH  18  19
ENDBRANCH  15  18
ENDBRANCH   1  14
BRANCH   7  32
HETATM   32  C17 UNL     1      -1.013  51.342 -22.184  1.00  0.00    -0.032 A 
HETATM   33  C18 UNL     1      -2.273  51.886 -22.463  1.00  0.00     0.011 A 
HETATM   34  C19 UNL     1      -2.479  52.617 -23.635  1.00  0.00     0.003 A 
HETATM   35  C20 UNL     1      -1.428  52.809 -24.531  1.00  0.00     0.024 A 
HETATM   36  C21 UNL     1      -0.174  52.268 -24.252  1.00  0.00     0.034 A 
HETATM   37 CL1  UNL     1       1.124  52.509 -25.357  1.00  0.00    -0.084 Cl
HETATM   38  C22 UNL     1       0.040  51.538 -23.083  1.00  0.00     0.035 A 
ENDBRANCH   7  32
TORSDOF 6
ENDMDL
