MODEL 1
REMARK minimizedAffinity -7.43316555
REMARK CNNscore 0.697023809
REMARK CNNaffinity 6.60646963
REMARK  4 active torsions:
REMARK  status: ('A' for Active; 'I' for Inactive)
REMARK    1  A    between atoms: C4_4  and  C5_5 
REMARK    2  A    between atoms: C5_5  and  C6_6 
REMARK    3  A    between atoms: C6_6  and  C7_7 
REMARK    4  A    between atoms: C7_7  and  C9_9 
ROOT
HETATM    1  C9  UNL     1       4.542  54.493  -7.900  1.00  0.00    -0.002 C 
HETATM    2  C10 UNL     1       4.049  54.376  -6.420  1.00  0.00     0.006 C 
HETATM    3  C11 UNL     1       2.516  54.541  -6.415  1.00  0.00     0.011 C 
HETATM    4  C12 UNL     1       2.111  54.399  -7.887  1.00  0.00    -0.032 C 
HETATM    5  C13 UNL     1       2.065  52.865  -8.176  1.00  0.00     0.016 C 
HETATM    6  C14 UNL     1       0.761  55.055  -8.300  1.00  0.00     0.004 C 
HETATM    7  C15 UNL     1      -0.476  54.619  -7.507  1.00  0.00     0.007 C 
HETATM    8  C16 UNL     1      -1.247  53.391  -7.979  1.00  0.00     0.007 C 
HETATM    9  C17 UNL     1      -1.090  52.931  -9.441  1.00  0.00     0.010 C 
HETATM   10  C18 UNL     1      -2.415  52.400 -10.094  1.00  0.00     0.018 C 
HETATM   11  C19 UNL     1      -2.923  51.160  -9.339  1.00  0.00     0.023 C 
HETATM   12  C20 UNL     1      -3.537  53.455 -10.156  1.00  0.00     0.023 C 
HETATM   13  C21 UNL     1      -2.130  51.963 -11.541  1.00  0.00     0.135 C 
HETATM   14  O1  UNL     1      -3.031  51.626 -12.313  1.00  0.00    -0.297 OA
HETATM   15  C22 UNL     1      -0.687  51.903 -11.973  1.00  0.00     0.080 C 
HETATM   16  C23 UNL     1      -0.014  53.245 -11.735  1.00  0.00     0.018 C 
HETATM   17  C24 UNL     1      -0.366  53.886 -10.391  1.00  0.00    -0.026 A 
HETATM   18  C25 UNL     1      -0.761  55.348 -10.407  1.00  0.00     0.021 A 
HETATM   19  C26 UNL     1       0.579  54.959  -9.822  1.00  0.00    -0.027 A 
HETATM   20  C27 UNL     1       1.787  55.465 -10.623  1.00  0.00     0.011 C 
HETATM   21  C28 UNL     1       3.146  54.941 -10.119  1.00  0.00     0.011 C 
HETATM   22  C29 UNL     1       3.311  55.154  -8.601  1.00  0.00    -0.032 C 
HETATM   23  C30 UNL     1       3.361  56.691  -8.323  1.00  0.00     0.016 C 
ENDROOT
BRANCH   1  24
HETATM   24  C7  UNL     1       5.957  55.149  -7.986  1.00  0.00    -0.014 C 
HETATM   25  C8  UNL     1       6.803  54.553  -9.116  1.00  0.00     0.010 C 
BRANCH  24  26
HETATM   26  C6  UNL     1       6.692  54.988  -6.623  1.00  0.00     0.008 C 
BRANCH  26  27
HETATM   27  C5  UNL     1       7.405  56.231  -6.072  1.00  0.00     0.028 C 
BRANCH  27  28
HETATM   28  C4  UNL     1       8.845  55.996  -5.707  1.00  0.00    -0.025 C 
HETATM   29  C2  UNL     1       9.706  56.892  -5.184  1.00  0.00    -0.091 C 
HETATM   30  C1  UNL     1       9.389  58.340  -4.937  1.00  0.00     0.042 C 
HETATM   31  C3  UNL     1      11.108  56.487  -4.809  1.00  0.00     0.042 C 
ENDBRANCH  27  28
ENDBRANCH  26  27
ENDBRANCH  24  26
ENDBRANCH   1  24
TORSDOF 4
ENDMDL
