MODEL 1
REMARK minimizedAffinity -8.69122028
REMARK CNNscore 0.439500958
REMARK CNNaffinity 7.25463724
REMARK  13 active torsions:
REMARK  status: ('A' for Active; 'I' for Inactive)
REMARK    1  A    between atoms: O1_2  and  C2_3 
REMARK    2  A    between atoms: C2_3  and  C3_5 
REMARK    3  A    between atoms: C3_5  and  C4_6 
REMARK    4  A    between atoms: C3_5  and  N3_13 
REMARK    5  A    between atoms: C4_6  and  C5_7 
REMARK       I    between atoms: N3_13  and  C8_14 
REMARK    6  A    between atoms: C8_14  and  C9_16 
REMARK    7  A    between atoms: C9_16  and  O4_17 
REMARK    8  A    between atoms: O4_17  and  N4_18 
REMARK    9  A    between atoms: C17_27  and  O5_28 
REMARK   10  A    between atoms: C24_35  and  O6_36 
REMARK   11  A    between atoms: C24_35  and  C25_37 
REMARK   12  A    between atoms: C25_37  and  C26_39 
REMARK   13  A    between atoms: C26_39  and  O8_40 
ROOT
HETATM    1  N4  UNL     1     -10.740   6.912  13.186  1.00  0.00    -0.271 N 
ATOM      2  H4  UNL     1     -10.923   6.412  12.315  1.00  0.00     0.194 HD
HETATM    3  C10 UNL     1      -9.594   6.909  13.805  1.00  0.00     0.032 C 
HETATM    4  C11 UNL     1      -8.507   6.074  13.229  1.00  0.00     0.030 C 
HETATM    5  C12 UNL     1      -7.308   5.950  13.825  1.00  0.00    -0.069 C 
HETATM    6  C13 UNL     1      -6.329   4.923  13.307  1.00  0.00     0.035 C 
HETATM    7  C14 UNL     1      -4.882   5.415  13.255  1.00  0.00     0.010 C 
HETATM    8  C15 UNL     1      -4.450   6.017  14.609  1.00  0.00    -0.002 C 
HETATM    9  C16 UNL     1      -5.382   7.201  14.979  1.00  0.00     0.031 C 
HETATM   10  C17 UNL     1      -5.130   8.389  14.010  1.00  0.00     0.124 C 
HETATM   11  C18 UNL     1      -3.709   8.483  13.429  1.00  0.00     0.045 C 
HETATM   12  C19 UNL     1      -2.573   7.862  14.288  1.00  0.00     0.001 C 
HETATM   13  C20 UNL     1      -2.331   8.787  15.501  1.00  0.00     0.019 C 
HETATM   14  C21 UNL     1      -2.956   6.423  14.765  1.00  0.00     0.002 C 
HETATM   15  C22 UNL     1      -1.963   5.453  14.106  1.00  0.00     0.009 C 
HETATM   16  C23 UNL     1      -1.347   6.221  12.952  1.00  0.00     0.047 C 
HETATM   17  C24 UNL     1      -1.262   7.667  13.442  1.00  0.00     0.128 C 
HETATM   18  C27 UNL     1      -6.902   6.745  15.067  1.00  0.00    -0.014 C 
HETATM   19  C28 UNL     1      -7.086   5.825  16.305  1.00  0.00     0.020 C 
HETATM   20  C29 UNL     1      -7.847   7.969  15.238  1.00  0.00     0.020 C 
HETATM   21  C30 UNL     1      -9.327   7.630  15.111  1.00  0.00     0.060 C 
ENDROOT
BRANCH   1  22
HETATM   22  O4  UNL     1     -11.690   7.686  13.865  1.00  0.00    -0.271 OA
BRANCH  22  23
HETATM   23  C9  UNL     1     -12.420   6.851  14.755  1.00  0.00     0.303 C 
BRANCH  23  24
HETATM   24  C8  UNL     1     -13.678   6.392  14.035  1.00  0.00     0.244 C 
HETATM   25  N3  UNL     1     -14.554   5.701  14.838  1.00  0.00    -0.345 N 
HETATM   26  H10 UNL     1     -14.253   5.464  15.780  1.00  0.00     0.163 HD
HETATM   27  O3  UNL     1     -13.898   6.639  12.850  1.00  0.00    -0.271 OA
BRANCH  25  28
HETATM   28  C3  UNL     1     -15.858   5.190  14.396  1.00  0.00     0.190 C 
BRANCH  28  29
HETATM   29  C2  UNL     1     -16.939   6.277  14.522  1.00  0.00     0.281 C 
HETATM   30  O2  UNL     1     -16.748   7.387  15.008  1.00  0.00    -0.263 OA
BRANCH  29  31
HETATM   31  O1  UNL     1     -18.129   5.864  13.990  1.00  0.00    -0.325 OA
HETATM   32  C1  UNL     1     -18.320   6.237  12.623  1.00  0.00     0.213 C 
ENDBRANCH  29  31
ENDBRANCH  28  29
BRANCH  28  33
HETATM   33  C4  UNL     1     -16.299   3.958  15.213  1.00  0.00     0.093 C 
BRANCH  33  34
HETATM   34  C5  UNL     1     -16.006   2.663  14.532  1.00  0.00     0.028 A 
HETATM   35  C6  UNL     1     -15.036   1.708  14.756  1.00  0.00     0.114 A 
HETATM   36  N1  UNL     1     -15.148   0.677  13.863  1.00  0.00    -0.360 N 
HETATM   37  C7  UNL     1     -16.177   0.983  13.106  1.00  0.00     0.180 A 
ATOM     38  H1  UNL     1     -14.559  -0.153  13.799  1.00  0.00     0.166 HD
HETATM   39  N2  UNL     1     -16.730   2.177  13.472  1.00  0.00    -0.354 N 
HETATM   40  H9  UNL     1     -17.559   2.601  13.061  1.00  0.00     0.166 HD
ENDBRANCH  33  34
ENDBRANCH  28  33
ENDBRANCH  25  28
ENDBRANCH  23  24
ENDBRANCH  22  23
ENDBRANCH   1  22
BRANCH  10  41
HETATM   41  O5  UNL     1      -5.456   9.626  14.648  1.00  0.00    -0.395 OA
HETATM   42  H21 UNL     1      -4.811   9.808  15.348  1.00  0.00     0.210 HD
ENDBRANCH  10  41
BRANCH  17  43
HETATM   43  O6  UNL     1      -1.293   8.508  12.275  1.00  0.00    -0.381 OA
HETATM   44  H32 UNL     1      -0.579   9.176  12.378  1.00  0.00     0.211 HD
ENDBRANCH  17  43
BRANCH  17  45
HETATM   45  C25 UNL     1       0.083   7.993  14.141  1.00  0.00     0.184 C 
HETATM   46  O7  UNL     1       0.572   9.129  14.036  1.00  0.00    -0.292 OA
BRANCH  45  47
HETATM   47  C26 UNL     1       0.819   6.924  14.936  1.00  0.00     0.245 C 
BRANCH  47  48
HETATM   48  O8  UNL     1       0.361   6.870  16.280  1.00  0.00    -0.393 OA
HETATM   49  H35 UNL     1      -0.113   7.711  16.453  1.00  0.00     0.209 HD
ENDBRANCH  47  48
ENDBRANCH  45  47
ENDBRANCH  17  45
TORSDOF 13
ENDMDL
