MODEL 1
REMARK minimizedAffinity -7.02907944
REMARK CNNscore 0.476754367
REMARK CNNaffinity 5.05164146
REMARK  3 active torsions:
REMARK  status: ('A' for Active; 'I' for Inactive)
REMARK    1  A    between atoms: C2_2  and  O1_3 
REMARK    2  A    between atoms: C2_2  and  C3_4 
REMARK    3  A    between atoms: C23_31  and  O9_32 
ROOT
HETATM    1  C3  UNL     1      -6.723  48.808 -20.739  1.00  0.00     0.133 C 
HETATM    2  C4  UNL     1      -8.000  48.738 -19.899  1.00  0.00     0.016 C 
HETATM    3  C5  UNL     1      -8.537  47.639 -19.344  1.00  0.00    -0.001 C 
HETATM    4  C6  UNL     1      -9.836  47.592 -18.714  1.00  0.00     0.006 C 
HETATM    5  C7  UNL     1     -10.950  47.999 -19.341  1.00  0.00     0.082 C 
HETATM    6  C8  UNL     1     -12.265  47.672 -18.772  1.00  0.00     0.283 C 
HETATM    7  O2  UNL     1     -12.566  47.718 -17.592  1.00  0.00    -0.260 OA
HETATM    8  O3  UNL     1     -13.029  47.220 -19.800  1.00  0.00    -0.312 OA
HETATM    9  C9  UNL     1     -14.203  46.507 -19.433  1.00  0.00     0.146 C 
HETATM   10  C10 UNL     1     -15.470  47.397 -19.407  1.00  0.00     0.068 C 
HETATM   11  C11 UNL     1     -16.536  46.570 -20.158  1.00  0.00     0.162 C 
HETATM   12  O4  UNL     1     -16.626  46.945 -21.550  1.00  0.00    -0.377 OA
HETATM   13  C12 UNL     1     -15.363  46.976 -22.237  1.00  0.00     0.127 C 
HETATM   14  C13 UNL     1     -15.573  47.210 -23.744  1.00  0.00     0.032 C 
HETATM   15  C14 UNL     1     -15.138  46.035 -24.626  1.00  0.00     0.003 C 
HETATM   16  C15 UNL     1     -13.741  45.468 -24.312  1.00  0.00     0.007 C 
HETATM   17  C16 UNL     1     -13.266  45.675 -22.844  1.00  0.00     0.017 C 
HETATM   18  C17 UNL     1     -12.378  46.938 -22.787  1.00  0.00     0.183 C 
HETATM   19  O5  UNL     1     -11.033  46.568 -22.423  1.00  0.00    -0.319 OA
HETATM   20  C18 UNL     1     -10.067  46.760 -23.359  1.00  0.00     0.291 C 
HETATM   21  O6  UNL     1     -10.238  47.162 -24.499  1.00  0.00    -0.262 OA
HETATM   22  C19 UNL     1      -8.726  46.502 -22.781  1.00  0.00     0.259 A 
HETATM   23  O7  UNL     1      -7.613  46.520 -23.688  1.00  0.00    -0.356 OA
HETATM   24  C20 UNL     1      -7.670  47.601 -22.743  1.00  0.00     0.128 A 
HETATM   25  C21 UNL     1      -7.941  48.949 -23.357  1.00  0.00     0.070 C 
HETATM   26  C22 UNL     1      -6.906  49.968 -22.894  1.00  0.00     0.172 C 
HETATM   27  O8  UNL     1      -6.874  50.069 -21.470  1.00  0.00    -0.371 OA
HETATM   28  C23 UNL     1      -6.583  47.564 -21.694  1.00  0.00     0.197 C 
HETATM   29  C24 UNL     1     -14.541  45.697 -21.964  1.00  0.00     0.034 C 
HETATM   30  C25 UNL     1     -14.511  45.345 -20.429  1.00  0.00     0.025 C 
HETATM   31  C26 UNL     1     -13.636  44.127 -20.140  1.00  0.00     0.022 C 
HETATM   32  C27 UNL     1     -15.982  45.181 -20.110  1.00  0.00     0.118 A 
HETATM   33  C28 UNL     1     -16.810  43.928 -20.241  1.00  0.00     0.210 A 
HETATM   34  O10 UNL     1     -16.328  44.398 -18.965  1.00  0.00    -0.371 OA
ENDROOT
BRANCH   1  35
HETATM   35  C2  UNL     1      -5.445  49.021 -19.867  1.00  0.00     0.155 C 
HETATM   36  C1  UNL     1      -4.470  50.078 -20.371  1.00  0.00     0.042 C 
BRANCH  35  37
HETATM   37  O1  UNL     1      -4.721  47.782 -19.735  1.00  0.00    -0.393 OA
HETATM   38  H5  UNL     1      -5.407  47.108 -19.558  1.00  0.00     0.210 HD
ENDBRANCH  35  37
ENDBRANCH   1  35
BRANCH  28  39
HETATM   39  O9  UNL     1      -5.314  47.529 -22.356  1.00  0.00    -0.389 OA
HETATM   40  H30 UNL     1      -5.401  46.889 -23.088  1.00  0.00     0.210 HD
ENDBRANCH  28  39
TORSDOF 3
ENDMDL
