MODEL 1
REMARK minimizedAffinity -9.58405399
REMARK CNNscore 0.85687238
REMARK CNNaffinity 7.50781393
REMARK  6 active torsions:
REMARK  status: ('A' for Active; 'I' for Inactive)
REMARK    1  A    between atoms: C12_13  and  C13_14 
REMARK    2  A    between atoms: C13_14  and  C15_16 
REMARK    3  A    between atoms: C15_16  and  C16_17 
REMARK    4  A    between atoms: C16_17  and  C17_18 
REMARK    5  A    between atoms: C18_19  and  C20_21 
REMARK    6  A    between atoms: C20_21  and  O3_23 
ROOT
HETATM    1  C1  UNL     1      -3.068  51.620 -26.582  1.00  0.00     0.052 C 
HETATM    2  C2  UNL     1      -1.895  52.222 -25.856  1.00  0.00    -0.013 C 
HETATM    3  C3  UNL     1      -1.759  52.397 -24.518  1.00  0.00    -0.066 C 
HETATM    4  C4  UNL     1      -2.854  52.019 -23.540  1.00  0.00     0.036 C 
HETATM    5  C5  UNL     1      -2.322  51.194 -22.374  1.00  0.00     0.010 C 
HETATM    6  C6  UNL     1      -1.260  51.991 -21.614  1.00  0.00     0.007 C 
HETATM    7  C7  UNL     1      -0.066  52.315 -22.554  1.00  0.00     0.068 C 
HETATM    8  C8  UNL     1       0.982  53.119 -21.758  1.00  0.00     0.133 C 
HETATM    9  O1  UNL     1       1.466  54.173 -22.171  1.00  0.00    -0.298 OA
HETATM   10  C9  UNL     1       1.433  52.550 -20.413  1.00  0.00     0.089 C 
HETATM   11  C10 UNL     1       0.201  52.310 -19.531  1.00  0.00    -0.026 C 
HETATM   12  C11 UNL     1      -0.437  53.703 -19.220  1.00  0.00     0.016 C 
HETATM   13  C12 UNL     1       0.402  51.543 -18.185  1.00  0.00    -0.002 C 
HETATM   14  C21 UNL     1      -1.030  50.975 -17.915  1.00  0.00     0.006 C 
HETATM   15  C22 UNL     1      -1.825  51.044 -19.234  1.00  0.00     0.011 C 
HETATM   16  C23 UNL     1      -0.760  51.315 -20.305  1.00  0.00    -0.032 C 
HETATM   17  C24 UNL     1      -0.116  49.926 -20.637  1.00  0.00     0.016 C 
HETATM   18  C25 UNL     1      -0.514  53.032 -23.867  1.00  0.00     0.027 C 
HETATM   19  C26 UNL     1       0.669  53.057 -24.860  1.00  0.00     0.018 C 
HETATM   20  C27 UNL     1       0.255  53.595 -26.212  1.00  0.00     0.084 C 
HETATM   21  C28 UNL     1      -0.825  52.723 -26.785  1.00  0.00     0.155 C 
HETATM   22  O4  UNL     1      -0.870  52.474 -27.989  1.00  0.00    -0.293 OA
ENDROOT
BRANCH  13  23
HETATM   23  C13 UNL     1       0.976  52.278 -16.934  1.00  0.00    -0.014 C 
HETATM   24  C14 UNL     1       2.475  52.564 -17.068  1.00  0.00     0.010 C 
BRANCH  23  25
HETATM   25  C15 UNL     1       0.717  51.433 -15.653  1.00  0.00     0.008 C 
BRANCH  25  26
HETATM   26  C16 UNL     1       1.445  51.893 -14.382  1.00  0.00     0.028 C 
BRANCH  26  27
HETATM   27  C17 UNL     1       2.515  50.935 -13.936  1.00  0.00    -0.013 C 
HETATM   28  C18 UNL     1       3.158  50.930 -12.752  1.00  0.00     0.008 C 
HETATM   29  C19 UNL     1       2.959  51.920 -11.644  1.00  0.00     0.055 C 
BRANCH  28  30
HETATM   30  C20 UNL     1       4.168  49.859 -12.549  1.00  0.00     0.171 C 
HETATM   31  O2  UNL     1       4.329  49.189 -11.544  1.00  0.00    -0.646 OA
BRANCH  30  32
HETATM   32  O3  UNL     1       4.943  49.676 -13.631  1.00  0.00    -0.773 OA
HETATM   33  H28 UNL     1       5.553  48.961 -13.355  1.00  0.00     0.167 HD
ENDBRANCH  30  32
ENDBRANCH  28  30
ENDBRANCH  26  27
ENDBRANCH  25  26
ENDBRANCH  23  25
ENDBRANCH  13  23
TORSDOF 6
ENDMDL
