MODEL 1
REMARK minimizedAffinity -8.01205635
REMARK  12 active torsions:
REMARK  status: ('A' for Active; 'I' for Inactive)
REMARK    1  A    between atoms: O1_2  and  C2_3 
REMARK    2  A    between atoms: C3_6  and  C4_7 
REMARK    3  A    between atoms: C4_7  and  C5_8 
REMARK    4  A    between atoms: C6_9  and  C8_11 
REMARK    5  A    between atoms: C8_11  and  C9_12 
REMARK    6  A    between atoms: C10_13  and  C11_14 
REMARK    7  A    between atoms: C13_16  and  C14_17 
REMARK    8  A    between atoms: C14_17  and  C16_19 
REMARK    9  A    between atoms: C16_19  and  O2_20 
REMARK   10  A    between atoms: C16_19  and  C18_22 
REMARK   11  A    between atoms: C24_29  and  O4_30 
REMARK   12  A    between atoms: C25_31  and  O5_32 
ROOT
HETATM    1  C5  UNL     1       0.106  51.854 -24.662  1.00  0.00    -0.018 C 
HETATM    2  C6  UNL     1      -0.889  51.613 -25.542  1.00  0.00    -0.084 C 
HETATM    3  C7  UNL     1      -2.140  52.443 -25.661  1.00  0.00     0.043 C 
ENDROOT
BRANCH   2   4
HETATM    4  C8  UNL     1      -0.828  50.410 -26.465  1.00  0.00     0.060 C 
BRANCH   4   5
HETATM    5  C9  UNL     1      -2.200  49.914 -26.836  1.00  0.00    -0.022 C 
HETATM    6  C10 UNL     1      -2.844  48.948 -26.159  1.00  0.00     0.003 C 
BRANCH   6   7
HETATM    7  C11 UNL     1      -4.181  48.421 -26.443  1.00  0.00    -0.066 C 
HETATM    8  C12 UNL     1      -5.100  48.202 -25.271  1.00  0.00     0.048 C 
HETATM    9  C13 UNL     1      -4.506  48.177 -27.732  1.00  0.00    -0.013 C 
BRANCH   9  10
HETATM   10  C14 UNL     1      -5.782  47.613 -28.350  1.00  0.00     0.037 C 
HETATM   11  C15 UNL     1      -6.951  47.626 -27.359  1.00  0.00     0.017 C 
BRANCH  10  12
HETATM   12  C16 UNL     1      -6.091  48.249 -29.736  1.00  0.00     0.165 C 
BRANCH  12  13
HETATM   13  O2  UNL     1      -4.899  48.132 -30.541  1.00  0.00    -0.387 OA
HETATM   14  C17 UNL     1      -4.876  46.945 -31.322  1.00  0.00     0.202 C 
ENDBRANCH  12  13
BRANCH  12  15
HETATM   15  C18 UNL     1      -7.225  47.573 -30.492  1.00  0.00     0.110 A 
HETATM   16  C19 UNL     1      -7.301  46.075 -30.450  1.00  0.00     0.051 C 
HETATM   17  O3  UNL     1      -8.498  48.238 -30.388  1.00  0.00    -0.367 OA
HETATM   18  C20 UNL     1      -7.848  48.335 -31.658  1.00  0.00     0.155 A 
HETATM   19  C21 UNL     1      -8.573  47.679 -32.777  1.00  0.00     0.042 C 
ENDBRANCH  12  15
ENDBRANCH  10  12
ENDBRANCH   9  10
ENDBRANCH   6   7
ENDBRANCH   4   5
ENDBRANCH   2   4
BRANCH   1  20
HETATM   20  C4  UNL     1       0.226  52.989 -23.672  1.00  0.00     0.085 C 
BRANCH  20  21
HETATM   21  C3  UNL     1      -0.052  52.601 -22.226  1.00  0.00     0.023 A 
HETATM   22  N1  UNL     1      -0.978  51.622 -22.025  1.00  0.00    -0.337 N 
HETATM   23  C2  UNL     1      -1.269  51.251 -20.757  1.00  0.00     0.179 A 
ATOM     24  H1  UNL     1      -1.444  51.177 -22.816  1.00  0.00     0.168 HD
HETATM   25  C25 UNL     1      -0.636  51.792 -19.647  1.00  0.00     0.153 A 
HETATM   26  C24 UNL     1       0.309  52.791 -19.875  1.00  0.00     0.111 A 
HETATM   27  C22 UNL     1       0.652  53.196 -21.167  1.00  0.00    -0.003 A 
HETATM   28  C23 UNL     1       1.678  54.271 -21.384  1.00  0.00     0.053 C 
BRANCH  23  29
HETATM   29  O1  UNL     1      -2.257  50.311 -20.552  1.00  0.00    -0.339 OA
HETATM   30  C1  UNL     1      -3.570  50.815 -20.771  1.00  0.00     0.211 C 
ENDBRANCH  23  29
BRANCH  25  31
HETATM   31  O5  UNL     1      -0.898  51.477 -18.338  1.00  0.00    -0.349 OA
HETATM   32  C26 UNL     1      -0.140  50.350 -17.896  1.00  0.00     0.210 C 
ENDBRANCH  25  31
BRANCH  26  33
HETATM   33  O4  UNL     1       0.920  53.382 -18.796  1.00  0.00    -0.357 OA
HETATM   34  H36 UNL     1       0.444  53.046 -18.009  1.00  0.00     0.217 HD
ENDBRANCH  26  33
ENDBRANCH  20  21
ENDBRANCH   1  20
TORSDOF 12
ENDMDL
