MODEL 1
REMARK minimizedAffinity -6.24053001
REMARK CNNscore 0.879796028
REMARK CNNaffinity 7.5366497
REMARK  12 active torsions:
REMARK  status: ('A' for Active; 'I' for Inactive)
REMARK    1  A    between atoms: C5_5  and  C6_6 
REMARK    2  A    between atoms: C6_6  and  C8_8 
REMARK    3  A    between atoms: C8_8  and  O1_9 
REMARK    4  A    between atoms: C13_15  and  O3_17 
REMARK    5  A    between atoms: C18_21  and  O4_23 
REMARK    6  A    between atoms: O4_23  and  C20_24 
REMARK    7  A    between atoms: C20_24  and  C21_26 
REMARK    8  A    between atoms: C21_26  and  C22_27 
REMARK    9  A    between atoms: C21_26  and  O6_29 
REMARK   10  A    between atoms: O6_29  and  C24_30 
REMARK   11  A    between atoms: C24_30  and  C25_32 
REMARK   12  A    between atoms: C25_32  and  C26_33 
ROOT
HETATM    1  C1  UNL     1       0.648  48.146 -13.499  1.00  0.00     0.015 C 
HETATM    2  C2  UNL     1       0.501  49.473 -13.662  1.00  0.00    -0.077 C 
HETATM    3  C3  UNL     1       1.114  50.188 -14.839  1.00  0.00     0.034 C 
HETATM    4  C4  UNL     1       1.507  51.631 -14.509  1.00  0.00     0.010 C 
HETATM    5  C5  UNL     1       1.876  51.845 -13.029  1.00  0.00    -0.001 C 
HETATM    6  C9  UNL     1       0.596  51.576 -12.148  1.00  0.00     0.037 C 
HETATM    7  C10 UNL     1      -0.238  50.342 -12.658  1.00  0.00     0.090 C 
HETATM    8  C11 UNL     1      -1.631  50.654 -13.236  1.00  0.00     0.138 C 
HETATM    9  O2  UNL     1      -1.782  51.084 -14.385  1.00  0.00    -0.297 OA
HETATM   10  C12 UNL     1      -2.867  50.351 -12.385  1.00  0.00     0.119 C 
HETATM   11  C13 UNL     1      -2.777  50.635 -10.867  1.00  0.00     0.087 C 
HETATM   12  C14 UNL     1      -4.203  50.667 -10.284  1.00  0.00     0.049 C 
HETATM   13  C15 UNL     1      -2.049  51.981 -10.502  1.00  0.00     0.156 C 
HETATM   14  C16 UNL     1      -0.963  51.857  -9.421  1.00  0.00     0.038 C 
HETATM   15  C17 UNL     1       0.031  53.019  -9.364  1.00  0.00     0.043 C 
HETATM   16  C18 UNL     1       0.193  53.801 -10.694  1.00  0.00     0.093 C 
HETATM   17  C19 UNL     1      -0.725  55.049 -10.584  1.00  0.00     0.049 C 
HETATM   18  C28 UNL     1      -0.239  52.889 -11.886  1.00  0.00     0.162 C 
HETATM   19  O8  UNL     1      -1.634  52.626 -11.705  1.00  0.00    -0.374 OA
ENDROOT
BRANCH  16  20
HETATM   20  O4  UNL     1       1.581  54.230 -10.728  1.00  0.00    -0.306 OA
BRANCH  20  21
HETATM   21  C20 UNL     1       2.329  54.209  -9.585  1.00  0.00     0.289 C 
HETATM   22  O5  UNL     1       2.716  53.196  -9.016  1.00  0.00    -0.262 OA
BRANCH  21  23
HETATM   23  C21 UNL     1       2.642  55.639  -9.124  1.00  0.00     0.231 C 
BRANCH  23  24
HETATM   24  C22 UNL     1       3.436  56.398 -10.196  1.00  0.00     0.038 C 
HETATM   25  C23 UNL     1       4.562  55.580 -10.820  1.00  0.00     0.008 C 
ENDBRANCH  23  24
BRANCH  23  26
HETATM   26  O6  UNL     1       3.406  55.664  -7.908  1.00  0.00    -0.306 OA
BRANCH  26  27
HETATM   27  C24 UNL     1       3.655  56.912  -7.425  1.00  0.00     0.259 C 
HETATM   28  O7  UNL     1       2.810  57.783  -7.273  1.00  0.00    -0.265 OA
BRANCH  27  29
HETATM   29  C25 UNL     1       5.119  57.085  -7.123  1.00  0.00     0.111 C 
BRANCH  29  30
HETATM   30  C26 UNL     1       5.810  55.737  -6.958  1.00  0.00     0.005 C 
HETATM   31  C27 UNL     1       6.878  55.527  -8.020  1.00  0.00     0.005 C 
ENDBRANCH  29  30
ENDBRANCH  27  29
ENDBRANCH  26  27
ENDBRANCH  23  26
ENDBRANCH  21  23
ENDBRANCH  20  21
ENDBRANCH  16  20
BRANCH   5  32
HETATM   32  C6  UNL     1       3.123  51.015 -12.553  1.00  0.00     0.010 C 
HETATM   33  C7  UNL     1       2.804  50.059 -11.392  1.00  0.00     0.012 C 
BRANCH  32  34
HETATM   34  C8  UNL     1       3.729  50.192 -13.708  1.00  0.00     0.168 C 
BRANCH  34  35
HETATM   35  O1  UNL     1       5.020  49.695 -13.367  1.00  0.00    -0.400 OA
HETATM   36  H14 UNL     1       5.556  50.452 -13.072  1.00  0.00     0.209 HD
ENDBRANCH  34  35
ENDBRANCH  32  34
ENDBRANCH   5  32
BRANCH  11  37
HETATM   37  O3  UNL     1      -2.136  49.513 -10.235  1.00  0.00    -0.387 OA
HETATM   38  H22 UNL     1      -2.700  48.728 -10.354  1.00  0.00     0.210 HD
ENDBRANCH  11  37
TORSDOF 12
ENDMDL
