MODEL 1
REMARK minimizedAffinity -6.81198359
REMARK CNNscore 0.604628682
REMARK CNNaffinity 5.38689375
REMARK  5 active torsions:
REMARK  status: ('A' for Active; 'I' for Inactive)
REMARK    1  A    between atoms: C4_4  and  C5_5 
REMARK    2  A    between atoms: C5_5  and  C6_6 
REMARK    3  A    between atoms: C6_6  and  C7_7 
REMARK    4  A    between atoms: C7_7  and  C9_9 
REMARK    5  A    between atoms: C24_24  and  O1_25 
ROOT
HETATM    1  C9  UNL     1      -5.491 -11.178   1.537  1.00  0.00    -0.002 C 
HETATM    2  C10 UNL     1      -4.171 -10.466   1.165  1.00  0.00     0.007 C 
HETATM    3  C11 UNL     1      -3.472 -10.088   2.493  1.00  0.00     0.015 C 
HETATM    4  C12 UNL     1      -4.286 -10.792   3.598  1.00  0.00    -0.013 C 
HETATM    5  C13 UNL     1      -3.709 -12.239   3.733  1.00  0.00     0.021 C 
HETATM    6  C14 UNL     1      -4.272 -10.241   5.021  1.00  0.00    -0.068 C 
HETATM    7  C15 UNL     1      -5.341 -10.453   5.836  1.00  0.00    -0.068 C 
HETATM    8  C16 UNL     1      -6.616 -11.141   5.333  1.00  0.00     0.036 C 
HETATM    9  C17 UNL     1      -6.664 -11.558   3.847  1.00  0.00     0.015 C 
HETATM   10  C18 UNL     1      -5.735 -10.690   2.996  1.00  0.00    -0.029 C 
HETATM   11  C19 UNL     1      -6.306  -9.239   2.981  1.00  0.00     0.016 C 
HETATM   12  C20 UNL     1      -5.347  -9.953   7.298  1.00  0.00    -0.017 C 
HETATM   13  C21 UNL     1      -6.072  -8.584   7.295  1.00  0.00     0.020 C 
HETATM   14  C22 UNL     1      -6.091 -10.920   8.263  1.00  0.00     0.016 C 
HETATM   15  C23 UNL     1      -5.995 -10.503   9.733  1.00  0.00     0.033 C 
HETATM   16  C24 UNL     1      -4.553 -10.311  10.190  1.00  0.00     0.118 C 
HETATM   17  C25 UNL     1      -3.767  -9.385   9.262  1.00  0.00     0.037 C 
HETATM   18  C26 UNL     1      -3.872  -9.848   7.804  1.00  0.00     0.001 C 
HETATM   19  C27 UNL     1      -3.028  -8.972   6.881  1.00  0.00     0.010 C 
HETATM   20  C28 UNL     1      -3.003  -9.544   5.464  1.00  0.00     0.036 C 
ENDROOT
BRANCH   1  21
HETATM   21  C7  UNL     1      -6.676 -11.104   0.532  1.00  0.00    -0.014 C 
HETATM   22  C8  UNL     1      -6.988 -12.510  -0.006  1.00  0.00     0.010 C 
BRANCH  21  23
HETATM   23  C6  UNL     1      -6.634 -10.035  -0.591  1.00  0.00     0.008 C 
BRANCH  23  24
HETATM   24  C5  UNL     1      -7.657 -10.104  -1.746  1.00  0.00     0.028 C 
BRANCH  24  25
HETATM   25  C4  UNL     1      -7.673  -8.906  -2.651  1.00  0.00    -0.025 C 
HETATM   26  C2  UNL     1      -8.262  -7.709  -2.462  1.00  0.00    -0.091 C 
HETATM   27  C1  UNL     1      -9.073  -7.311  -1.259  1.00  0.00     0.042 C 
HETATM   28  C3  UNL     1      -8.145  -6.629  -3.507  1.00  0.00     0.042 C 
ENDBRANCH  24  25
ENDBRANCH  23  24
ENDBRANCH  21  23
ENDBRANCH   1  21
BRANCH  16  29
HETATM   29  O1  UNL     1      -4.539  -9.784  11.514  1.00  0.00    -0.396 OA
HETATM   30  H39 UNL     1      -4.943  -8.899  11.488  1.00  0.00     0.210 HD
ENDBRANCH  16  29
TORSDOF 5
ENDMDL
