MODEL 1
REMARK minimizedAffinity -9.92428493
REMARK CNNscore 0.156074405
REMARK CNNaffinity 6.77373362
REMARK  13 active torsions:
REMARK  status: ('A' for Active; 'I' for Inactive)
REMARK    1  A    between atoms: C2_2  and  O1_3 
REMARK    2  A    between atoms: O1_3  and  C3_4 
REMARK       I    between atoms: C3_4  and  N1_6 
REMARK       I    between atoms: N2_9  and  C6_10 
REMARK    3  A    between atoms: C6_10  and  C7_12 
REMARK    4  A    between atoms: C7_12  and  C8_13 
REMARK    5  A    between atoms: C7_12  and  N5_24 
REMARK    6  A    between atoms: C8_13  and  C9_14 
REMARK    7  A    between atoms: C13_18  and  C14_19 
REMARK    8  A    between atoms: C14_19  and  N4_22 
REMARK    9  A    between atoms: N5_24  and  S1_25 
REMARK   10  A    between atoms: S1_25  and  C16_28 
REMARK   11  A    between atoms: C17_29  and  C18_30 
REMARK   12  A    between atoms: C22_34  and  C23_35 
REMARK   13  A    between atoms: C27_39  and  C28_40 
ROOT
HETATM    1  C7  UNL     1      -0.333   8.017  11.497  1.00  0.00     0.189 C 
ENDROOT
BRANCH   1   2
HETATM    2  C6  UNL     1      -0.826   9.093  12.485  1.00  0.00     0.243 C 
HETATM    3  N2  UNL     1      -0.146   9.299  13.683  1.00  0.00    -0.347 N 
HETATM    4  C5  UNL     1       1.152   8.703  14.026  1.00  0.00     0.146 C 
HETATM    5  C31 UNL     1      -0.462  10.531  14.416  1.00  0.00     0.146 C 
HETATM    6  C4  UNL     1       1.387   8.593  15.540  1.00  0.00     0.148 C 
HETATM    7  N1  UNL     1       1.057   9.821  16.252  1.00  0.00    -0.325 N 
HETATM    8  C3  UNL     1       1.685  10.061  17.463  1.00  0.00     0.362 C 
HETATM    9  C32 UNL     1      -0.241  10.410  15.926  1.00  0.00     0.148 C 
HETATM   10  O2  UNL     1       2.607   9.381  17.897  1.00  0.00    -0.238 OA
HETATM   11  O3  UNL     1      -1.827   9.760  12.195  1.00  0.00    -0.271 OA
BRANCH   8  12
HETATM   12  O1  UNL     1       1.161  11.134  18.114  1.00  0.00    -0.304 OA
BRANCH  12  13
HETATM   13  C2  UNL     1       1.739  11.444  19.390  1.00  0.00     0.176 C 
HETATM   14  C1  UNL     1       0.892  10.839  20.495  1.00  0.00     0.034 C 
ENDBRANCH  12  13
ENDBRANCH   8  12
ENDBRANCH   1   2
BRANCH   1  15
HETATM   15  C8  UNL     1      -0.002   8.591  10.105  1.00  0.00     0.074 C 
BRANCH  15  16
HETATM   16  C9  UNL     1       0.944   7.758   9.268  1.00  0.00    -0.055 A 
HETATM   17  C10 UNL     1       1.095   8.004   7.898  1.00  0.00     0.007 A 
HETATM   18  C11 UNL     1       1.977   7.238   7.134  1.00  0.00     0.002 A 
HETATM   19  C12 UNL     1       2.726   6.222   7.730  1.00  0.00     0.014 A 
HETATM   20  C13 UNL     1       2.598   5.973   9.101  1.00  0.00     0.002 A 
HETATM   21  C15 UNL     1       1.700   6.734   9.860  1.00  0.00     0.022 A 
BRANCH  20  22
HETATM   22  C14 UNL     1       3.399   4.902   9.771  1.00  0.00     0.081 C 
HETATM   23  N3  UNL     1       4.654   5.105  10.016  1.00  0.00    -0.389 N 
HETATM   24  H16 UNL     1       5.042   4.299  10.509  1.00  0.00     0.157 HD
ATOM     25  H3  UNL     1       5.176   5.942   9.756  1.00  0.00     0.157 HD
BRANCH  22  26
HETATM   26  N4  UNL     1       2.828   3.708  10.113  1.00  0.00    -0.288 NA
HETATM   27  H17 UNL     1       2.042   3.418   9.540  1.00  0.00     0.125 HD
HETATM   28  H18 UNL     1       3.474   2.943  10.260  1.00  0.00     0.125 HD
ENDBRANCH  22  26
ENDBRANCH  20  22
ENDBRANCH  15  16
ENDBRANCH   1  15
BRANCH   1  29
HETATM   29  N5  UNL     1      -1.402   6.995  11.340  1.00  0.00    -0.301 N 
HETATM   30  H20 UNL     1      -2.336   7.405  11.434  1.00  0.00     0.173 HD
BRANCH  29  31
HETATM   31  S1  UNL     1      -1.262   5.488  12.058  1.00  0.00     0.260 S 
HETATM   32  O4  UNL     1      -0.660   4.615  11.080  1.00  0.00    -0.200 OA
HETATM   33  O5  UNL     1      -0.560   5.691  13.306  1.00  0.00    -0.200 OA
BRANCH  31  34
HETATM   34  C16 UNL     1      -2.975   4.960  12.352  1.00  0.00     0.092 A 
HETATM   35  C17 UNL     1      -3.391   3.627  12.026  1.00  0.00    -0.030 A 
HETATM   36  C21 UNL     1      -4.730   3.257  12.335  1.00  0.00     0.016 A 
HETATM   37  C22 UNL     1      -5.643   4.110  12.947  1.00  0.00    -0.054 A 
HETATM   38  C26 UNL     1      -5.209   5.388  13.277  1.00  0.00     0.016 A 
HETATM   39  C27 UNL     1      -3.905   5.855  12.988  1.00  0.00    -0.030 A 
BRANCH  35  40
HETATM   40  C18 UNL     1      -2.596   2.453  11.429  1.00  0.00     0.012 C 
HETATM   41  C19 UNL     1      -1.126   2.275  11.806  1.00  0.00     0.015 C 
HETATM   42  C20 UNL     1      -3.390   1.141  11.433  1.00  0.00     0.015 C 
ENDBRANCH  35  40
BRANCH  37  43
HETATM   43  C23 UNL     1      -7.059   3.676  13.277  1.00  0.00     0.010 C 
HETATM   44  C24 UNL     1      -7.305   2.216  12.887  1.00  0.00     0.015 C 
HETATM   45  C25 UNL     1      -8.097   4.597  12.631  1.00  0.00     0.015 C 
ENDBRANCH  37  43
BRANCH  39  46
HETATM   46  C28 UNL     1      -3.598   7.281  13.460  1.00  0.00     0.012 C 
HETATM   47  C29 UNL     1      -3.371   7.306  14.975  1.00  0.00     0.015 C 
HETATM   48  C30 UNL     1      -4.662   8.329  13.083  1.00  0.00     0.015 C 
ENDBRANCH  39  46
ENDBRANCH  31  34
ENDBRANCH  29  31
ENDBRANCH   1  29
TORSDOF 13
ENDMDL
