MODEL 1
REMARK minimizedAffinity -6.43963289
REMARK CNNscore 0.631758511
REMARK CNNaffinity 6.44601297
REMARK  5 active torsions:
REMARK  status: ('A' for Active; 'I' for Inactive)
REMARK    1  A    between atoms: C2_2  and  C3_3 
REMARK    2  A    between atoms: C2_2  and  C25_27 
REMARK    3  A    between atoms: C3_3  and  C4_4 
REMARK    4  A    between atoms: C4_4  and  C5_5 
REMARK    5  A    between atoms: C15_15  and  O1_16 
ROOT
HETATM    1  C5  UNL     1      -3.102  12.279  18.836  1.00  0.00    -0.023 C 
HETATM    2  C6  UNL     1      -2.865  11.901  17.565  1.00  0.00    -0.075 C 
HETATM    3  C7  UNL     1      -3.416  12.591  16.349  1.00  0.00     0.035 C 
HETATM    4  C8  UNL     1      -3.110  11.629  15.208  1.00  0.00     0.013 C 
HETATM    5  C9  UNL     1      -1.791  10.961  15.622  1.00  0.00     0.033 C 
HETATM    6  C10 UNL     1      -1.393   9.718  14.790  1.00  0.00     0.070 C 
HETATM    7  C11 UNL     1      -1.443   9.989  13.260  1.00  0.00     0.039 C 
HETATM    8  C12 UNL     1      -1.890   8.774  12.449  1.00  0.00     0.009 C 
HETATM    9  C13 UNL     1      -1.255   7.461  12.930  1.00  0.00    -0.001 C 
HETATM   10  C14 UNL     1      -2.004   6.259  12.320  1.00  0.00     0.037 C 
HETATM   11  C15 UNL     1      -3.121   5.756  13.227  1.00  0.00     0.118 C 
HETATM   12  C16 UNL     1      -2.584   5.281  14.578  1.00  0.00     0.032 C 
HETATM   13  C17 UNL     1      -1.254   5.934  14.964  1.00  0.00     0.015 C 
HETATM   14  C18 UNL     1      -1.138   7.393  14.495  1.00  0.00    -0.009 C 
HETATM   15  C19 UNL     1       0.214   8.004  14.915  1.00  0.00     0.179 C 
HETATM   16  O2  UNL     1       0.007   9.420  15.061  1.00  0.00    -0.379 OA
HETATM   17  C20 UNL     1      -2.100   8.403  15.168  1.00  0.00     0.032 C 
HETATM   18  C21 UNL     1      -2.224   8.202  16.690  1.00  0.00     0.009 C 
HETATM   19  C22 UNL     1      -2.822   9.414  17.385  1.00  0.00     0.014 C 
HETATM   20  C23 UNL     1      -2.007  10.702  17.142  1.00  0.00    -0.014 C 
HETATM   21  C24 UNL     1      -0.667  10.667  17.897  1.00  0.00     0.020 C 
ENDROOT
BRANCH   1  22
HETATM   22  C4  UNL     1      -3.919  13.467  19.276  1.00  0.00     0.031 C 
BRANCH  22  23
HETATM   23  C3  UNL     1      -5.164  13.015  20.059  1.00  0.00     0.037 C 
BRANCH  23  24
HETATM   24  C2  UNL     1      -5.520  13.800  21.316  1.00  0.00    -0.086 C 
HETATM   25  C1  UNL     1      -4.805  14.843  21.776  1.00  0.00     0.014 C 
BRANCH  24  26
HETATM   26  C25 UNL     1      -6.764  13.348  22.084  1.00  0.00     0.005 C 
HETATM   27  C26 UNL     1      -6.994  14.179  23.349  1.00  0.00     0.014 C 
HETATM   28  C27 UNL     1      -8.019  13.338  21.208  1.00  0.00     0.014 C 
ENDBRANCH  24  26
ENDBRANCH  23  24
ENDBRANCH  22  23
ENDBRANCH   1  22
BRANCH  11  29
HETATM   29  O1  UNL     1      -3.825   4.698  12.586  1.00  0.00    -0.396 OA
HETATM   30  H21 UNL     1      -3.212   3.953  12.468  1.00  0.00     0.210 HD
ENDBRANCH  11  29
TORSDOF 5
ENDMDL
