MODEL 1
REMARK minimizedAffinity -8.20908928
REMARK  5 active torsions:
REMARK  status: ('A' for Active; 'I' for Inactive)
REMARK    1  A    between atoms: C2_2  and  C11_13 
REMARK    2  A    between atoms: C3_3  and  C4_4 
REMARK    3  A    between atoms: C7_7  and  C8_8 
REMARK    4  A    between atoms: C8_8  and  O2_10 
REMARK    5  A    between atoms: C14_16  and  C15_17 
ROOT
HETATM    1  C1  UNL     1      -6.789   2.341  12.138  1.00  0.00     0.049 C 
HETATM    2  C2  UNL     1      -6.306   3.737  12.486  1.00  0.00    -0.044 C 
HETATM    3  C3  UNL     1      -5.004   4.089  12.368  1.00  0.00     0.019 C 
ENDROOT
BRANCH   3   4
HETATM    4  C4  UNL     1      -3.928   3.226  11.875  1.00  0.00    -0.036 A 
HETATM    5  C5  UNL     1      -4.000   1.843  12.071  1.00  0.00     0.012 A 
HETATM    6  C6  UNL     1      -2.977   1.011  11.607  1.00  0.00     0.019 A 
HETATM    7  C7  UNL     1      -1.871   1.560  10.945  1.00  0.00     0.037 A 
HETATM    8  C9  UNL     1      -1.798   2.945  10.752  1.00  0.00     0.019 A 
HETATM    9  C10 UNL     1      -2.822   3.775  11.217  1.00  0.00     0.012 A 
BRANCH   7  10
HETATM   10  C8  UNL     1      -0.762   0.719  10.434  1.00  0.00     0.176 C 
HETATM   11  O1  UNL     1      -0.009   0.043  11.111  1.00  0.00    -0.646 OA
BRANCH  10  12
HETATM   12  O2  UNL     1      -0.646   0.764   9.095  1.00  0.00    -0.773 OA
HETATM   13  H7  UNL     1       0.112   0.173   8.907  1.00  0.00     0.167 HD
ENDBRANCH  10  12
ENDBRANCH   7  10
ENDBRANCH   3   4
BRANCH   2  14
HETATM   14  C11 UNL     1      -7.200   4.761  12.974  1.00  0.00     0.011 A 
HETATM   15  C12 UNL     1      -8.481   5.094  12.563  1.00  0.00     0.020 A 
HETATM   16  C13 UNL     1      -9.044   6.177  13.299  1.00  0.00     0.016 A 
HETATM   17  C14 UNL     1      -8.183   6.662  14.262  1.00  0.00    -0.013 A 
HETATM   18  S1  UNL     1      -6.703   5.801  14.256  1.00  0.00    -0.094 SA
BRANCH  17  19
HETATM   19  C15 UNL     1      -8.395   7.791  15.243  1.00  0.00     0.017 C 
HETATM   20  C16 UNL     1      -8.189   7.313  16.681  1.00  0.00     0.015 C 
HETATM   21  C17 UNL     1      -9.784   8.411  15.071  1.00  0.00     0.015 C 
ENDBRANCH  17  19
ENDBRANCH   2  14
TORSDOF 5
ENDMDL
