MODEL 1
REMARK minimizedAffinity -9.861166
REMARK  8 active torsions:
REMARK  status: ('A' for Active; 'I' for Inactive)
REMARK    1  A    between atoms: C4_4  and  C5_5 
REMARK    2  A    between atoms: C5_5  and  C6_6 
REMARK    3  A    between atoms: C6_6  and  C7_7 
REMARK    4  A    between atoms: C7_7  and  C9_9 
REMARK    5  A    between atoms: C25_26  and  C27_28 
REMARK    6  A    between atoms: C27_28  and  O3_30 
REMARK    7  A    between atoms: C28_31  and  O4_32 
REMARK    8  A    between atoms: C30_34  and  O5_35 
ROOT
HETATM    1  C9  UNL     1      -1.194  49.372 -18.333  1.00  0.00    -0.002 C 
HETATM    2  C10 UNL     1      -2.364  48.359 -18.509  1.00  0.00     0.007 C 
HETATM    3  C11 UNL     1      -2.773  48.375 -19.993  1.00  0.00     0.015 C 
HETATM    4  C12 UNL     1      -1.643  49.130 -20.718  1.00  0.00    -0.005 C 
HETATM    5  C13 UNL     1      -0.505  48.096 -20.989  1.00  0.00     0.021 C 
HETATM    6  C14 UNL     1      -1.892  49.784 -22.074  1.00  0.00    -0.000 C 
HETATM    7  C15 UNL     1      -1.226  50.912 -22.450  1.00  0.00    -0.058 C 
HETATM    8  C16 UNL     1      -0.236  51.581 -21.494  1.00  0.00     0.036 C 
HETATM    9  C17 UNL     1      -0.041  50.951 -20.101  1.00  0.00     0.015 C 
HETATM   10  C18 UNL     1      -1.308  50.229 -19.631  1.00  0.00    -0.028 C 
HETATM   11  C19 UNL     1      -2.445  51.286 -19.451  1.00  0.00     0.016 C 
HETATM   12  C20 UNL     1      -1.469  51.618 -23.831  1.00  0.00     0.011 C 
HETATM   13  C21 UNL     1      -2.639  52.589 -23.559  1.00  0.00     0.023 C 
HETATM   14  C22 UNL     1      -1.790  50.470 -24.850  1.00  0.00     0.029 C 
HETATM   15  C23 UNL     1      -3.023  49.678 -24.412  1.00  0.00     0.090 C 
HETATM   16  C24 UNL     1      -2.848  49.116 -23.020  1.00  0.00     0.157 C 
HETATM   17  O1  UNL     1      -3.492  48.124 -22.681  1.00  0.00    -0.293 OA
HETATM   18  C25 UNL     1      -1.674  50.801 -26.389  1.00  0.00     0.072 C 
HETATM   19  C26 UNL     1      -0.461  49.975 -26.928  1.00  0.00     0.030 C 
HETATM   20  C28 UNL     1      -1.374  52.280 -26.711  1.00  0.00     0.139 C 
HETATM   21  C29 UNL     1      -0.313  52.917 -25.822  1.00  0.00     0.065 C 
HETATM   22  C30 UNL     1      -0.212  52.375 -24.386  1.00  0.00     0.133 C 
ENDROOT
BRANCH   1  23
HETATM   23  C7  UNL     1      -1.238  50.063 -16.939  1.00  0.00    -0.014 C 
HETATM   24  C8  UNL     1      -2.284  49.394 -16.028  1.00  0.00     0.010 C 
BRANCH  23  25
HETATM   25  C6  UNL     1       0.118  50.137 -16.198  1.00  0.00     0.008 C 
BRANCH  25  26
HETATM   26  C5  UNL     1       0.496  51.524 -15.668  1.00  0.00     0.028 C 
BRANCH  26  27
HETATM   27  C4  UNL     1       1.833  51.965 -16.199  1.00  0.00    -0.025 C 
HETATM   28  C2  UNL     1       3.013  51.991 -15.547  1.00  0.00    -0.091 C 
HETATM   29  C1  UNL     1       3.206  51.633 -14.099  1.00  0.00     0.042 C 
HETATM   30  C3  UNL     1       4.276  52.401 -16.258  1.00  0.00     0.042 C 
ENDBRANCH  26  27
ENDBRANCH  25  26
ENDBRANCH  23  25
ENDBRANCH   1  23
BRANCH  22  31
HETATM   31  O5  UNL     1       0.194  53.475 -23.567  1.00  0.00    -0.394 OA
HETATM   32  H46 UNL     1      -0.513  54.144 -23.579  1.00  0.00     0.210 HD
ENDBRANCH  22  31
BRANCH  18  33
HETATM   33  C27 UNL     1      -2.864  50.373 -27.260  1.00  0.00     0.151 C 
HETATM   34  O2  UNL     1      -3.735  49.573 -26.938  1.00  0.00    -0.649 OA
BRANCH  33  35
HETATM   35  O3  UNL     1      -2.908  50.921 -28.488  1.00  0.00    -0.776 OA
HETATM   36  H40 UNL     1      -3.696  50.509 -28.903  1.00  0.00     0.167 HD
ENDBRANCH  33  35
ENDBRANCH  18  33
BRANCH  20  37
HETATM   37  O4  UNL     1      -2.548  53.086 -26.628  1.00  0.00    -0.394 OA
HETATM   38  H42 UNL     1      -2.380  53.913 -27.116  1.00  0.00     0.210 HD
ENDBRANCH  20  37
TORSDOF 8
ENDMDL
