MODEL 1
REMARK minimizedAffinity -7.3350172
REMARK CNNscore 0.614640236
REMARK CNNaffinity 7.33754158
REMARK  9 active torsions:
REMARK  status: ('A' for Active; 'I' for Inactive)
REMARK    1  A    between atoms: C2_2  and  C3_3 
REMARK    2  A    between atoms: C2_2  and  C9_11 
REMARK    3  A    between atoms: C3_3  and  C4_4 
REMARK    4  A    between atoms: C4_4  and  C5_5 
REMARK    5  A    between atoms: C5_5  and  O1_6 
REMARK    6  A    between atoms: C5_5  and  C6_7 
REMARK    7  A    between atoms: C6_7  and  O2_10 
REMARK    8  A    between atoms: C17_19  and  C18_20 
REMARK    9  A    between atoms: C18_20  and  O3_23 
ROOT
HETATM    1  C9  UNL     1      -9.152   6.798  13.833  1.00  0.00    -0.002 C 
HETATM    2  C10 UNL     1      -8.559   6.432  15.232  1.00  0.00     0.006 C 
HETATM    3  C11 UNL     1      -9.265   7.330  16.274  1.00  0.00     0.011 C 
HETATM    4  C12 UNL     1      -9.952   8.422  15.431  1.00  0.00    -0.032 C 
HETATM    5  C13 UNL     1      -8.818   9.443  15.071  1.00  0.00     0.016 C 
HETATM    6  C14 UNL     1     -11.163   9.127  16.109  1.00  0.00     0.003 C 
HETATM    7  C15 UNL     1     -10.857   9.774  17.468  1.00  0.00     0.009 C 
HETATM    8  C16 UNL     1     -11.929  10.732  17.983  1.00  0.00     0.042 C 
HETATM    9  C17 UNL     1     -13.366  10.601  17.407  1.00  0.00     0.095 C 
HETATM   10  O4  UNL     1     -14.027  11.877  17.684  1.00  0.00    -0.377 OA
HETATM   11  C21 UNL     1     -13.770  12.915  16.752  1.00  0.00     0.169 C 
HETATM   12  C22 UNL     1     -14.416  12.603  15.420  1.00  0.00     0.027 C 
HETATM   13  C23 UNL     1     -14.428  11.116  15.094  1.00  0.00     0.010 C 
HETATM   14  C24 UNL     1     -13.412  10.249  15.870  1.00  0.00     0.032 C 
HETATM   15  C25 UNL     1     -12.001  10.050  15.153  1.00  0.00    -0.033 C 
HETATM   16  C26 UNL     1     -11.313  11.400  14.855  1.00  0.00     0.016 C 
HETATM   17  C27 UNL     1     -12.235   9.351  13.759  1.00  0.00     0.011 C 
HETATM   18  C28 UNL     1     -11.062   8.533  13.171  1.00  0.00     0.011 C 
HETATM   19  C29 UNL     1     -10.463   7.560  14.202  1.00  0.00    -0.032 C 
HETATM   20  C30 UNL     1     -11.572   6.523  14.553  1.00  0.00     0.016 C 
ENDROOT
BRANCH   1  21
HETATM   21  C2  UNL     1      -9.084   5.621  12.810  1.00  0.00    -0.014 C 
HETATM   22  C1  UNL     1      -8.830   5.987  11.342  1.00  0.00     0.010 C 
BRANCH  21  23
HETATM   23  C3  UNL     1      -8.106   4.521  13.276  1.00  0.00     0.007 C 
BRANCH  23  24
HETATM   24  C4  UNL     1      -7.060   4.031  12.256  1.00  0.00     0.035 C 
BRANCH  24  25
HETATM   25  C5  UNL     1      -6.626   2.563  12.432  1.00  0.00     0.151 C 
BRANCH  25  26
HETATM   26  O1  UNL     1      -7.796   1.752  12.543  1.00  0.00    -0.393 OA
HETATM   27  H10 UNL     1      -7.531   0.882  12.887  1.00  0.00     0.210 HD
ENDBRANCH  25  26
BRANCH  25  28
HETATM   28  C6  UNL     1      -5.711   2.057  11.272  1.00  0.00     0.076 C 
HETATM   29  C7  UNL     1      -5.544   3.134  10.192  1.00  0.00     0.048 C 
HETATM   30  C8  UNL     1      -4.326   1.627  11.767  1.00  0.00     0.048 C 
BRANCH  28  31
HETATM   31  O2  UNL     1      -6.311   0.915  10.644  1.00  0.00    -0.388 OA
HETATM   32  H17 UNL     1      -7.156   1.193  10.252  1.00  0.00     0.210 HD
ENDBRANCH  28  31
ENDBRANCH  25  28
ENDBRANCH  24  25
ENDBRANCH  23  24
ENDBRANCH  21  23
ENDBRANCH   1  21
BRANCH   9  33
HETATM   33  C18 UNL     1     -14.241   9.594  18.294  1.00  0.00     0.082 C 
HETATM   34  C19 UNL     1     -15.745   9.875  18.328  1.00  0.00     0.049 C 
HETATM   35  C20 UNL     1     -13.736   9.466  19.742  1.00  0.00     0.049 C 
BRANCH  33  36
HETATM   36  O3  UNL     1     -14.095   8.271  17.729  1.00  0.00    -0.388 OA
HETATM   37  H37 UNL     1     -13.139   8.198  17.528  1.00  0.00     0.210 HD
ENDBRANCH  33  36
ENDBRANCH   9  33
TORSDOF 9
ENDMDL
