MODEL 1
REMARK minimizedAffinity -8.3622942
REMARK CNNscore 0.611263692
REMARK CNNaffinity 7.39794493
REMARK  6 active torsions:
REMARK  status: ('A' for Active; 'I' for Inactive)
REMARK    1  A    between atoms: C6_8  and  C7_9 
REMARK    2  A    between atoms: C10_12  and  O1_13 
REMARK    3  A    between atoms: O1_13  and  C11_14 
REMARK    4  A    between atoms: C18_22  and  C19_23 
REMARK    5  A    between atoms: C22_26  and  O2_27 
REMARK    6  A    between atoms: O2_27  and  C23_28 
ROOT
HETATM    1  C1  UNL     1       1.087  52.930 -18.247  1.00  0.00     0.049 C 
HETATM    2  C2  UNL     1       0.769  52.952 -19.717  1.00  0.00    -0.046 A 
HETATM    3  C3  UNL     1       1.418  53.787 -20.559  1.00  0.00     0.056 A 
HETATM    4  C4  UNL     1       1.108  53.803 -21.945  1.00  0.00     0.112 A 
HETATM    5  N1  UNL     1       1.589  54.538 -22.924  1.00  0.00    -0.350 N 
ATOM      6  H1  UNL     1       2.307  55.259 -22.862  1.00  0.00     0.166 HD
HETATM    7  C5  UNL     1       0.915  54.125 -24.042  1.00  0.00     0.120 A 
HETATM    8  C6  UNL     1       0.015  53.114 -23.760  1.00  0.00     0.066 A 
HETATM    9  N2  UNL     1       0.129  52.922 -22.392  1.00  0.00    -0.305 N 
HETATM   10  C17 UNL     1      -0.561  52.060 -21.540  1.00  0.00     0.112 A 
HETATM   11  C18 UNL     1      -0.278  52.042 -20.221  1.00  0.00    -0.004 A 
ENDROOT
BRANCH   8  12
HETATM   12  C7  UNL     1      -0.889  52.397 -24.650  1.00  0.00    -0.007 A 
HETATM   13  C8  UNL     1      -0.396  51.477 -25.584  1.00  0.00     0.016 A 
HETATM   14  C9  UNL     1      -1.269  50.801 -26.440  1.00  0.00     0.037 A 
HETATM   15  C10 UNL     1      -2.635  51.067 -26.387  1.00  0.00     0.069 A 
HETATM   16  C15 UNL     1      -3.140  51.952 -25.438  1.00  0.00     0.037 A 
HETATM   17  C16 UNL     1      -2.268  52.629 -24.583  1.00  0.00     0.016 A 
BRANCH  15  18
HETATM   18  O1  UNL     1      -3.499  50.367 -27.179  1.00  0.00    -0.341 OA
BRANCH  18  19
HETATM   19  C11 UNL     1      -3.859  49.039 -26.734  1.00  0.00     0.057 C 
HETATM   20  C12 UNL     1      -4.688  48.281 -27.780  1.00  0.00     0.045 C 
HETATM   21  C13 UNL     1      -2.511  48.313 -26.574  1.00  0.00     0.045 C 
HETATM   22  C14 UNL     1      -4.568  49.031 -25.372  1.00  0.00     0.045 C 
ENDBRANCH  18  19
ENDBRANCH  15  18
ENDBRANCH   8  12
BRANCH  11  23
HETATM   23  C19 UNL     1      -1.047  51.106 -19.384  1.00  0.00    -0.024 A 
HETATM   24  C20 UNL     1      -2.219  51.527 -18.748  1.00  0.00     0.015 A 
HETATM   25  C21 UNL     1      -2.948  50.631 -17.962  1.00  0.00     0.037 A 
HETATM   26  C22 UNL     1      -2.520  49.312 -17.795  1.00  0.00     0.069 A 
HETATM   27  C26 UNL     1      -1.354  48.890 -18.434  1.00  0.00     0.037 A 
HETATM   28  C27 UNL     1      -0.621  49.783 -19.224  1.00  0.00     0.015 A 
BRANCH  26  29
HETATM   29  O2  UNL     1      -3.335  48.551 -17.005  1.00  0.00    -0.347 OA
BRANCH  29  30
HETATM   30  C23 UNL     1      -2.761  47.532 -16.180  1.00  0.00     0.120 C 
HETATM   31  C24 UNL     1      -2.720  48.091 -14.759  1.00  0.00     0.040 C 
HETATM   32  C25 UNL     1      -3.632  46.280 -16.221  1.00  0.00     0.040 C 
ENDBRANCH  29  30
ENDBRANCH  26  29
ENDBRANCH  11  23
TORSDOF 6
ENDMDL
