MODEL 1
REMARK minimizedAffinity -8.62548447
REMARK  8 active torsions:
REMARK  status: ('A' for Active; 'I' for Inactive)
REMARK    1  A    between atoms: C4_4  and  C5_5 
REMARK    2  A    between atoms: C5_5  and  C6_6 
REMARK    3  A    between atoms: C6_6  and  C7_7 
REMARK    4  A    between atoms: C7_7  and  C9_9 
REMARK    5  A    between atoms: C21_21  and  C22_22 
REMARK    6  A    between atoms: C22_22  and  C23_23 
REMARK    7  A    between atoms: C23_23  and  C24_24 
REMARK    8  A    between atoms: C24_24  and  O1_25 
ROOT
HETATM    1  C9  UNL     1      -0.844  52.034 -19.544  1.00  0.00    -0.002 C 
HETATM    2  C10 UNL     1      -0.462  50.713 -18.798  1.00  0.00     0.006 C 
HETATM    3  C11 UNL     1      -0.716  49.539 -19.768  1.00  0.00     0.011 C 
HETATM    4  C12 UNL     1      -1.563  50.149 -20.902  1.00  0.00    -0.032 C 
HETATM    5  C13 UNL     1      -3.017  50.185 -20.338  1.00  0.00     0.016 C 
HETATM    6  C14 UNL     1      -1.487  49.402 -22.274  1.00  0.00     0.003 C 
HETATM    7  C15 UNL     1      -1.943  47.925 -22.263  1.00  0.00     0.010 C 
HETATM    8  C16 UNL     1      -3.445  47.663 -22.412  1.00  0.00     0.035 C 
HETATM    9  C17 UNL     1      -4.198  48.802 -23.084  1.00  0.00    -0.073 C 
HETATM   10  C18 UNL     1      -5.462  49.122 -22.694  1.00  0.00    -0.085 C 
HETATM   11  C19 UNL     1      -6.249  50.333 -23.123  1.00  0.00     0.043 C 
HETATM   12  C20 UNL     1      -6.260  48.270 -21.726  1.00  0.00     0.043 C 
HETATM   13  C21 UNL     1      -3.308  49.439 -24.165  1.00  0.00     0.023 C 
HETATM   14  C25 UNL     1      -2.094  50.230 -23.494  1.00  0.00    -0.032 C 
HETATM   15  C26 UNL     1      -0.990  50.356 -24.587  1.00  0.00     0.016 C 
HETATM   16  C27 UNL     1      -2.519  51.673 -23.091  1.00  0.00     0.011 C 
HETATM   17  C28 UNL     1      -1.695  52.428 -22.024  1.00  0.00     0.011 C 
HETATM   18  C29 UNL     1      -0.882  51.565 -21.040  1.00  0.00    -0.032 C 
HETATM   19  C30 UNL     1       0.602  51.529 -21.532  1.00  0.00     0.016 C 
ENDROOT
BRANCH   1  20
HETATM   20  C7  UNL     1       0.059  53.232 -19.113  1.00  0.00    -0.014 C 
HETATM   21  C8  UNL     1       0.721  53.863 -20.352  1.00  0.00     0.010 C 
BRANCH  20  22
HETATM   22  C6  UNL     1       1.142  52.807 -18.092  1.00  0.00     0.008 C 
BRANCH  22  23
HETATM   23  C5  UNL     1       0.791  51.607 -17.197  1.00  0.00     0.028 C 
BRANCH  23  24
HETATM   24  C4  UNL     1       1.417  51.701 -15.832  1.00  0.00    -0.025 C 
HETATM   25  C2  UNL     1       2.684  52.029 -15.513  1.00  0.00    -0.091 C 
HETATM   26  C1  UNL     1       3.775  52.368 -16.492  1.00  0.00     0.042 C 
HETATM   27  C3  UNL     1       3.118  52.083 -14.070  1.00  0.00     0.042 C 
ENDBRANCH  23  24
ENDBRANCH  22  23
ENDBRANCH  20  22
ENDBRANCH   1  20
BRANCH  13  28
HETATM   28  C22 UNL     1      -4.005  50.175 -25.345  1.00  0.00     0.012 C 
BRANCH  28  29
HETATM   29  C23 UNL     1      -3.770  49.558 -26.737  1.00  0.00     0.027 C 
BRANCH  29  30
HETATM   30  C24 UNL     1      -3.054  50.488 -27.714  1.00  0.00     0.164 C 
BRANCH  30  31
HETATM   31  O1  UNL     1      -3.575  50.352 -29.026  1.00  0.00    -0.401 OA
HETATM   32  H42 UNL     1      -3.132  51.017 -29.579  1.00  0.00     0.209 HD
ENDBRANCH  30  31
ENDBRANCH  29  30
ENDBRANCH  28  29
ENDBRANCH  13  28
TORSDOF 8
ENDMDL
