MODEL 1
REMARK minimizedAffinity -8.18721676
REMARK  16 active torsions:
REMARK  status: ('A' for Active; 'I' for Inactive)
REMARK    1  A    between atoms: C4_4  and  C5_5 
REMARK    2  A    between atoms: C5_5  and  C6_6 
REMARK    3  A    between atoms: C6_6  and  C7_7 
REMARK    4  A    between atoms: C9_9  and  C10_10 
REMARK    5  A    between atoms: C10_10  and  O1_11 
REMARK    6  A    between atoms: C10_10  and  C11_12 
REMARK    7  A    between atoms: C11_12  and  C12_13 
REMARK    8  A    between atoms: C14_15  and  C15_16 
REMARK    9  A    between atoms: C15_16  and  C16_17 
REMARK   10  A    between atoms: C16_17  and  C17_18 
REMARK   11  A    between atoms: C19_20  and  C20_21 
REMARK   12  A    between atoms: C20_21  and  C21_22 
REMARK   13  A    between atoms: C21_22  and  C22_23 
REMARK   14  A    between atoms: C22_23  and  O2_24 
REMARK   15  A    between atoms: C24_26  and  C26_28 
REMARK   16  A    between atoms: C29_32  and  O4_34 
ROOT
HETATM    1  C17 UNL     1      -2.274  50.929 -24.437  1.00  0.00    -0.006 C 
HETATM    2  C18 UNL     1      -3.031  52.116 -23.778  1.00  0.00     0.019 C 
HETATM    3  C19 UNL     1      -0.765  51.325 -24.811  1.00  0.00     0.026 C 
HETATM    4  C23 UNL     1      -0.565  51.771 -26.272  1.00  0.00    -0.066 C 
HETATM    5  C24 UNL     1       0.551  51.515 -27.001  1.00  0.00    -0.021 C 
HETATM    6  C25 UNL     1       0.737  51.937 -28.432  1.00  0.00     0.052 C 
HETATM    7  C27 UNL     1      -1.753  52.499 -26.840  1.00  0.00     0.038 C 
HETATM    8  C28 UNL     1      -3.023  51.651 -26.805  1.00  0.00     0.042 C 
HETATM    9  C29 UNL     1      -3.028  50.507 -25.760  1.00  0.00     0.062 C 
HETATM   10  C30 UNL     1      -2.483  49.214 -26.399  1.00  0.00     0.046 C 
ENDROOT
BRANCH   1  11
HETATM   11  C16 UNL     1      -2.197  49.769 -23.366  1.00  0.00     0.016 C 
BRANCH  11  12
HETATM   12  C15 UNL     1      -2.995  48.468 -23.574  1.00  0.00     0.028 C 
BRANCH  12  13
HETATM   13  C14 UNL     1      -4.151  48.261 -22.635  1.00  0.00    -0.024 C 
HETATM   14  C12 UNL     1      -4.169  47.570 -21.478  1.00  0.00    -0.085 C 
HETATM   15  C13 UNL     1      -2.989  46.833 -20.906  1.00  0.00     0.043 C 
BRANCH  14  16
HETATM   16  C11 UNL     1      -5.435  47.542 -20.632  1.00  0.00     0.069 C 
BRANCH  16  17
HETATM   17  C10 UNL     1      -5.976  48.943 -20.294  1.00  0.00     0.145 C 
BRANCH  17  18
HETATM   18  C9  UNL     1      -4.887  49.986 -20.269  1.00  0.00     0.007 C 
HETATM   19  C7  UNL     1      -3.899  50.180 -19.370  1.00  0.00    -0.085 C 
HETATM   20  C8  UNL     1      -3.671  49.334 -18.146  1.00  0.00     0.043 C 
BRANCH  19  21
HETATM   21  C6  UNL     1      -2.939  51.345 -19.534  1.00  0.00     0.037 C 
BRANCH  21  22
HETATM   22  C5  UNL     1      -1.497  50.947 -19.879  1.00  0.00     0.031 C 
BRANCH  22  23
HETATM   23  C4  UNL     1      -0.647  52.093 -20.360  1.00  0.00    -0.024 C 
HETATM   24  C2  UNL     1       0.271  52.788 -19.659  1.00  0.00    -0.091 C 
HETATM   25  C1  UNL     1       0.665  52.504 -18.237  1.00  0.00     0.042 C 
HETATM   26  C3  UNL     1       1.011  53.938 -20.290  1.00  0.00     0.042 C 
ENDBRANCH  22  23
ENDBRANCH  21  22
ENDBRANCH  19  21
ENDBRANCH  17  18
BRANCH  17  27
HETATM   27  O1  UNL     1      -6.671  48.954 -19.051  1.00  0.00    -0.391 OA
HETATM   28  H17 UNL     1      -7.454  48.391 -19.172  1.00  0.00     0.210 HD
ENDBRANCH  17  27
ENDBRANCH  16  17
ENDBRANCH  14  16
ENDBRANCH  12  13
ENDBRANCH  11  12
ENDBRANCH   1  11
BRANCH   3  29
HETATM   29  C20 UNL     1      -0.081  52.388 -23.904  1.00  0.00     0.012 C 
BRANCH  29  30
HETATM   30  C21 UNL     1       0.286  53.684 -24.639  1.00  0.00     0.027 C 
BRANCH  30  31
HETATM   31  C22 UNL     1       1.133  54.618 -23.782  1.00  0.00     0.164 C 
BRANCH  31  32
HETATM   32  O2  UNL     1       1.277  55.902 -24.374  1.00  0.00    -0.401 OA
HETATM   33  H38 UNL     1       1.136  55.822 -25.343  1.00  0.00     0.209 HD
ENDBRANCH  31  32
ENDBRANCH  30  31
ENDBRANCH  29  30
ENDBRANCH   3  29
BRANCH   9  34
HETATM   34  O4  UNL     1      -4.410  50.254 -25.469  1.00  0.00    -0.389 OA
HETATM   35  H50 UNL     1      -4.869  50.069 -26.310  1.00  0.00     0.210 HD
ENDBRANCH   9  34
BRANCH   5  36
HETATM   36  C26 UNL     1       1.741  50.782 -26.449  1.00  0.00     0.265 C 
HETATM   37  O3  UNL     1       2.904  51.158 -26.537  1.00  0.00    -0.302 OA
ENDBRANCH   5  36
TORSDOF 16
ENDMDL
