MODEL 1
REMARK minimizedAffinity -8.03304386
REMARK CNNscore 0.609799087
REMARK CNNaffinity 6.59096909
REMARK  2 active torsions:
REMARK  status: ('A' for Active; 'I' for Inactive)
REMARK    1  A    between atoms: C13_16  and  C14_17 
REMARK    2  A    between atoms: C14_17  and  O4_19 
ROOT
HETATM    1  C1  UNL     1       4.027  50.686  -5.611  1.00  0.00     0.046 C 
HETATM    2  C2  UNL     1       3.502  51.664  -6.621  1.00  0.00    -0.054 C 
HETATM    3  C3  UNL     1       4.327  52.409  -7.377  1.00  0.00     0.011 C 
HETATM    4  C4  UNL     1       3.821  53.374  -8.417  1.00  0.00     0.159 C 
HETATM    5  O1  UNL     1       3.848  54.655  -7.758  1.00  0.00    -0.372 OA
HETATM    6  C5  UNL     1       3.172  55.708  -8.443  1.00  0.00     0.162 C 
HETATM    7  C6  UNL     1       1.708  55.761  -7.918  1.00  0.00     0.068 C 
HETATM    8  C7  UNL     1       0.878  55.271  -9.120  1.00  0.00     0.147 C 
HETATM    9  O2  UNL     1      -0.362  54.621  -8.836  1.00  0.00    -0.312 OA
HETATM   10  C8  UNL     1      -1.366  54.871  -9.722  1.00  0.00     0.283 C 
HETATM   11  O3  UNL     1      -1.470  55.863 -10.427  1.00  0.00    -0.260 OA
HETATM   12  C9  UNL     1      -2.259  53.697  -9.781  1.00  0.00     0.082 C 
HETATM   13  C10 UNL     1      -3.268  53.693 -10.666  1.00  0.00     0.006 C 
HETATM   14  C11 UNL     1      -4.213  52.616 -10.815  1.00  0.00    -0.001 C 
HETATM   15  C12 UNL     1      -4.082  51.463 -11.496  1.00  0.00     0.007 C 
HETATM   16  C13 UNL     1      -2.930  50.905 -12.320  1.00  0.00     0.172 C 
HETATM   17  O5  UNL     1      -1.715  51.248 -11.643  1.00  0.00    -0.379 OA
HETATM   18  C16 UNL     1      -0.470  50.876 -12.247  1.00  0.00     0.173 C 
HETATM   19  C17 UNL     1      -0.172  51.621 -13.555  1.00  0.00     0.060 C 
HETATM   20  C18 UNL     1       1.250  51.738 -14.108  1.00  0.00    -0.076 C 
HETATM   21  C19 UNL     1       1.265  52.301 -15.514  1.00  0.00     0.043 C 
HETATM   22  C20 UNL     1       2.439  51.451 -13.534  1.00  0.00     0.084 C 
HETATM   23  C21 UNL     1       2.644  50.938 -12.172  1.00  0.00     0.283 C 
HETATM   24  O6  UNL     1       2.465  49.774 -11.854  1.00  0.00    -0.260 OA
HETATM   25  O7  UNL     1       2.966  51.977 -11.354  1.00  0.00    -0.317 OA
HETATM   26  C22 UNL     1       2.639  51.726  -9.986  1.00  0.00     0.195 C 
HETATM   27  C23 UNL     1       2.414  53.006  -9.084  1.00  0.00     0.053 C 
HETATM   28  C24 UNL     1       1.479  52.561  -7.906  1.00  0.00     0.170 A 
HETATM   29  O8  UNL     1       1.282  51.145  -7.736  1.00  0.00    -0.370 OA
HETATM   30  C25 UNL     1       2.044  51.789  -6.719  1.00  0.00     0.180 A 
HETATM   31  C26 UNL     1       1.878  54.349  -9.908  1.00  0.00     0.034 C 
HETATM   32  C27 UNL     1       1.287  54.125 -11.299  1.00  0.00     0.022 C 
HETATM   33  C28 UNL     1       3.008  55.356  -9.886  1.00  0.00     0.119 A 
HETATM   34  C29 UNL     1       3.369  56.326 -10.993  1.00  0.00     0.210 A 
HETATM   35  O9  UNL     1       4.153  55.153 -10.706  1.00  0.00    -0.371 OA
ENDROOT
BRANCH  16  36
HETATM   36  C14 UNL     1      -3.020  49.362 -12.597  1.00  0.00     0.146 C 
HETATM   37  C15 UNL     1      -3.990  48.574 -11.720  1.00  0.00     0.042 C 
BRANCH  36  38
HETATM   38  O4  UNL     1      -3.460  49.139 -13.952  1.00  0.00    -0.393 OA
HETATM   39  H19 UNL     1      -4.392  49.410 -14.016  1.00  0.00     0.210 HD
ENDBRANCH  36  38
ENDBRANCH  16  36
TORSDOF 2
ENDMDL
