MODEL 1
REMARK minimizedAffinity -9.20379162
REMARK  8 active torsions:
REMARK  status: ('A' for Active; 'I' for Inactive)
REMARK    1  A    between atoms: C2_2  and  O1_3 
REMARK    2  A    between atoms: O1_3  and  C3_4 
REMARK    3  A    between atoms: C3_4  and  C4_6 
REMARK    4  A    between atoms: C4_6  and  O3_7 
REMARK    5  A    between atoms: C6_11  and  C7_12 
REMARK    6  A    between atoms: C7_12  and  C8_13 
REMARK    7  A    between atoms: C19_25  and  C20_26 
REMARK    8  A    between atoms: C23_29  and  O7_30 
ROOT
HETATM    1  C4  UNL     1      -5.045   7.264  14.417  1.00  0.00     0.291 A 
HETATM    2  O4  UNL     1      -4.255   8.077  15.281  1.00  0.00    -0.265 OA
HETATM    3  C5  UNL     1      -2.970   7.647  15.259  1.00  0.00     0.293 A 
HETATM    4  O5  UNL     1      -2.058   8.135  15.900  1.00  0.00    -0.259 OA
HETATM    5  C6  UNL     1      -2.838   6.508  14.344  1.00  0.00     0.034 A 
HETATM    6  C19 UNL     1      -4.067   6.270  13.879  1.00  0.00     0.037 A 
ENDROOT
BRANCH   5   7
HETATM    7  C7  UNL     1      -1.531   5.835  14.119  1.00  0.00     0.084 C 
BRANCH   7   8
HETATM    8  C8  UNL     1      -0.777   6.441  12.959  1.00  0.00    -0.053 A 
HETATM    9  C9  UNL     1      -1.061   7.743  12.526  1.00  0.00     0.010 A 
HETATM   10  C10 UNL     1      -0.330   8.313  11.485  1.00  0.00     0.038 A 
HETATM   11  C11 UNL     1       0.695   7.596  10.868  1.00  0.00     0.076 A 
HETATM   12  O6  UNL     1       1.355   8.250   9.863  1.00  0.00    -0.340 OA
HETATM   13  C17 UNL     1       0.981   6.290  11.272  1.00  0.00    -0.024 A 
HETATM   14  C12 UNL     1       2.561   7.640   9.368  1.00  0.00     0.061 C 
HETATM   15  C13 UNL     1       2.768   8.209   7.956  1.00  0.00     0.046 C 
HETATM   16  C14 UNL     1       3.740   8.082  10.248  1.00  0.00     0.046 C 
HETATM   17  C15 UNL     1       2.430   6.113   9.269  1.00  0.00     0.042 C 
HETATM   18  C16 UNL     1       2.077   5.503  10.618  1.00  0.00     0.044 C 
HETATM   19  C18 UNL     1       0.251   5.724  12.328  1.00  0.00     0.017 A 
ENDBRANCH   7   8
ENDBRANCH   5   7
BRANCH   6  20
HETATM   20  C20 UNL     1      -4.446   5.163  13.000  1.00  0.00    -0.023 A 
HETATM   21  C21 UNL     1      -5.729   4.601  13.108  1.00  0.00     0.015 A 
HETATM   22  C22 UNL     1      -6.117   3.545  12.279  1.00  0.00     0.037 A 
HETATM   23  C23 UNL     1      -5.221   3.052  11.339  1.00  0.00     0.065 A 
HETATM   24  C24 UNL     1      -3.949   3.598  11.215  1.00  0.00     0.037 A 
HETATM   25  C25 UNL     1      -3.561   4.653  12.044  1.00  0.00     0.015 A 
BRANCH  23  26
HETATM   26  O7  UNL     1      -5.553   2.023  10.509  1.00  0.00    -0.361 OA
HETATM   27  H24 UNL     1      -6.462   1.743  10.704  1.00  0.00     0.217 HD
ENDBRANCH  23  26
ENDBRANCH   6  20
BRANCH   1  28
HETATM   28  C3  UNL     1      -6.110   6.484  15.260  1.00  0.00     0.328 C 
HETATM   29  O2  UNL     1      -5.848   5.698  16.167  1.00  0.00    -0.259 OA
BRANCH  28  30
HETATM   30  O1  UNL     1      -7.373   6.741  14.805  1.00  0.00    -0.317 OA
BRANCH  30  31
HETATM   31  C2  UNL     1      -8.418   6.364  15.706  1.00  0.00     0.174 C 
HETATM   32  C1  UNL     1      -8.929   7.619  16.388  1.00  0.00     0.034 C 
ENDBRANCH  30  31
ENDBRANCH  28  30
ENDBRANCH   1  28
BRANCH   1  33
HETATM   33  O3  UNL     1      -5.567   8.094  13.395  1.00  0.00    -0.353 OA
HETATM   34  H6  UNL     1      -4.906   8.137  12.688  1.00  0.00     0.214 HD
ENDBRANCH   1  33
TORSDOF 8
ENDMDL
