MODEL 1
REMARK minimizedAffinity -8.50251198
REMARK CNNscore 0.443139315
REMARK CNNaffinity 7.16374445
REMARK  12 active torsions:
REMARK  status: ('A' for Active; 'I' for Inactive)
REMARK    1  A    between atoms: C2_2  and  C3_3 
REMARK    2  A    between atoms: C4_5  and  C5_6 
REMARK    3  A    between atoms: C5_6  and  C6_7 
REMARK    4  A    between atoms: C6_7  and  C7_8 
REMARK    5  A    between atoms: C7_8  and  C9_10 
REMARK    6  A    between atoms: C21_22  and  O2_23 
REMARK    7  A    between atoms: O2_23  and  C22_24 
REMARK    8  A    between atoms: C23_26  and  C24_27 
REMARK    9  A    between atoms: C24_27  and  O4_28 
REMARK   10  A    between atoms: C25_29  and  O5_30 
REMARK   11  A    between atoms: C26_31  and  O6_32 
REMARK   12  A    between atoms: C27_33  and  O7_34 
ROOT
HETATM    1  C9  UNL     1      -3.242  48.775 -22.255  1.00  0.00    -0.002 C 
HETATM    2  C10 UNL     1      -2.021  47.809 -22.541  1.00  0.00     0.006 C 
HETATM    3  C11 UNL     1      -1.205  47.679 -21.206  1.00  0.00     0.011 C 
HETATM    4  C12 UNL     1      -2.166  48.273 -20.164  1.00  0.00    -0.031 C 
HETATM    5  C13 UNL     1      -3.244  47.099 -20.025  1.00  0.00     0.016 C 
HETATM    6  C14 UNL     1      -1.677  48.628 -18.660  1.00  0.00     0.014 C 
HETATM    7  C15 UNL     1      -2.721  48.151 -17.584  1.00  0.00     0.034 C 
HETATM    8  C16 UNL     1      -2.821  48.836 -16.267  1.00  0.00    -0.022 C 
HETATM    9  C17 UNL     1      -2.160  49.946 -15.927  1.00  0.00    -0.068 C 
HETATM   10  C18 UNL     1      -1.162  50.535 -16.888  1.00  0.00     0.031 C 
HETATM   11  C19 UNL     1       0.228  50.249 -16.260  1.00  0.00     0.013 C 
HETATM   12  C20 UNL     1       0.278  50.446 -14.735  1.00  0.00     0.034 C 
HETATM   13  C21 UNL     1      -0.873  51.322 -14.216  1.00  0.00     0.136 C 
HETATM   14  C28 UNL     1      -2.255  50.640 -14.549  1.00  0.00     0.002 C 
HETATM   15  C29 UNL     1      -3.361  51.713 -14.621  1.00  0.00     0.022 C 
HETATM   16  C30 UNL     1      -2.643  49.643 -13.429  1.00  0.00     0.022 C 
HETATM   17  C31 UNL     1      -1.357  50.129 -18.417  1.00  0.00     0.029 C 
HETATM   18  C32 UNL     1      -0.023  50.485 -19.117  1.00  0.00     0.025 C 
HETATM   19  C33 UNL     1      -2.569  50.974 -18.973  1.00  0.00     0.137 C 
HETATM   20  O8  UNL     1      -2.761  52.140 -18.610  1.00  0.00    -0.297 OA
HETATM   21  C34 UNL     1      -3.515  50.360 -20.040  1.00  0.00     0.089 C 
HETATM   22  C35 UNL     1      -2.681  49.546 -21.018  1.00  0.00    -0.026 C 
HETATM   23  C36 UNL     1      -1.687  50.588 -21.664  1.00  0.00     0.016 C 
ENDROOT
BRANCH  13  24
HETATM   24  O2  UNL     1      -0.674  51.491 -12.806  1.00  0.00    -0.352 OA
BRANCH  24  25
HETATM   25  C22 UNL     1      -1.284  50.484 -12.002  1.00  0.00     0.292 C 
HETATM   26  O3  UNL     1      -2.345  51.042 -11.225  1.00  0.00    -0.348 OA
HETATM   27  C23 UNL     1      -1.932  52.004 -10.248  1.00  0.00     0.179 C 
HETATM   28  C25 UNL     1      -0.411  52.107  -9.994  1.00  0.00     0.180 C 
HETATM   29  C26 UNL     1       0.209  50.709  -9.933  1.00  0.00     0.183 C 
HETATM   30  C27 UNL     1      -0.254  49.798 -11.083  1.00  0.00     0.204 C 
BRANCH  27  31
HETATM   31  C24 UNL     1      -2.528  53.369 -10.623  1.00  0.00     0.198 C 
BRANCH  31  32
HETATM   32  O4  UNL     1      -3.808  53.554 -10.025  1.00  0.00    -0.398 OA
HETATM   33  H36 UNL     1      -4.138  54.420 -10.330  1.00  0.00     0.209 HD
ENDBRANCH  31  32
ENDBRANCH  27  31
BRANCH  28  34
HETATM   34  O5  UNL     1      -0.169  52.785  -8.749  1.00  0.00    -0.390 OA
HETATM   35  H38 UNL     1      -0.752  53.577  -8.745  1.00  0.00     0.210 HD
ENDBRANCH  28  34
BRANCH  29  36
HETATM   36  O6  UNL     1       1.648  50.806  -9.968  1.00  0.00    -0.390 OA
HETATM   37  H40 UNL     1       1.994  50.013  -9.524  1.00  0.00     0.210 HD
ENDBRANCH  29  36
BRANCH  30  38
HETATM   38  O7  UNL     1      -0.825  48.597 -10.520  1.00  0.00    -0.388 OA
HETATM   39  H42 UNL     1      -1.624  48.855 -10.025  1.00  0.00     0.210 HD
ENDBRANCH  30  38
ENDBRANCH  24  25
ENDBRANCH  13  24
BRANCH   1  40
HETATM   40  C7  UNL     1      -3.737  49.496 -23.538  1.00  0.00    -0.014 C 
HETATM   41  C8  UNL     1      -4.021  48.512 -24.679  1.00  0.00     0.010 C 
BRANCH  40  42
HETATM   42  C6  UNL     1      -2.757  50.596 -24.026  1.00  0.00     0.008 C 
BRANCH  42  43
HETATM   43  C5  UNL     1      -1.951  50.262 -25.287  1.00  0.00     0.028 C 
BRANCH  43  44
HETATM   44  C4  UNL     1      -0.589  50.896 -25.232  1.00  0.00    -0.017 C 
HETATM   45  C2  UNL     1       0.077  51.505 -26.231  1.00  0.00    -0.028 C 
HETATM   46  C1  UNL     1      -0.365  51.672 -27.652  1.00  0.00     0.051 C 
BRANCH  45  47
HETATM   47  C3  UNL     1       1.424  52.079 -25.913  1.00  0.00     0.265 C 
HETATM   48  O1  UNL     1       2.381  52.057 -26.678  1.00  0.00    -0.302 OA
ENDBRANCH  45  47
ENDBRANCH  43  44
ENDBRANCH  42  43
ENDBRANCH  40  42
ENDBRANCH   1  40
TORSDOF 12
ENDMDL
