MODEL 1
REMARK minimizedAffinity -8.39935875
REMARK CNNscore 0.638923287
REMARK CNNaffinity 7.26697302
REMARK  15 active torsions:
REMARK  status: ('A' for Active; 'I' for Inactive)
REMARK    1  A    between atoms: C2_2  and  C3_3 
REMARK    2  A    between atoms: C3_3  and  C4_4 
REMARK    3  A    between atoms: C4_4  and  C5_5 
REMARK    4  A    between atoms: C5_5  and  C6_6 
REMARK    5  A    between atoms: C6_6  and  C7_7 
REMARK    6  A    between atoms: C7_7  and  C8_8 
REMARK    7  A    between atoms: C7_7  and  C30_36 
REMARK    8  A    between atoms: C9_9  and  C11_11 
REMARK    9  A    between atoms: C11_11  and  O1_12 
REMARK   10  A    between atoms: C11_11  and  C12_13 
REMARK   11  A    between atoms: C12_13  and  C14_15 
REMARK   12  A    between atoms: C14_15  and  O3_17 
REMARK   13  A    between atoms: O3_17  and  C15_18 
REMARK   14  A    between atoms: C27_31  and  O5_32 
REMARK   15  A    between atoms: C30_36  and  O7_37 
ROOT
HETATM    1  C14 UNL     1      -1.159   8.186  12.564  1.00  0.00     0.266 C 
HETATM    2  O2  UNL     1      -0.984   9.216  13.203  1.00  0.00    -0.265 OA
ENDROOT
BRANCH   1   3
HETATM    3  C12 UNL     1      -2.450   7.399  12.542  1.00  0.00     0.114 C 
HETATM    4  C13 UNL     1      -3.567   8.321  13.030  1.00  0.00     0.023 C 
BRANCH   3   5
HETATM    5  C11 UNL     1      -2.272   6.132  13.386  1.00  0.00     0.159 C 
BRANCH   5   6
HETATM    6  C9  UNL     1      -2.393   4.838  12.587  1.00  0.00    -0.058 C 
HETATM    7  C8  UNL     1      -3.443   4.008  12.766  1.00  0.00    -0.015 C 
HETATM    8  C10 UNL     1      -1.242   4.574  11.653  1.00  0.00     0.046 C 
BRANCH   7   9
HETATM    9  C7  UNL     1      -3.693   2.667  12.096  1.00  0.00     0.032 C 
BRANCH   9  10
HETATM   10  C6  UNL     1      -4.985   2.776  11.258  1.00  0.00     0.010 C 
BRANCH  10  11
HETATM   11  C5  UNL     1      -5.996   1.664  11.553  1.00  0.00     0.001 C 
BRANCH  11  12
HETATM   12  C4  UNL     1      -7.225   2.153  12.330  1.00  0.00     0.000 C 
BRANCH  12  13
HETATM   13  C3  UNL     1      -7.078   3.580  12.864  1.00  0.00    -0.000 C 
BRANCH  13  14
HETATM   14  C2  UNL     1      -8.371   4.398  12.767  1.00  0.00    -0.005 C 
HETATM   15  C1  UNL     1      -8.189   5.865  13.122  1.00  0.00     0.005 C 
ENDBRANCH  13  14
ENDBRANCH  12  13
ENDBRANCH  11  12
ENDBRANCH  10  11
ENDBRANCH   9  10
BRANCH   9  16
HETATM   16  C30 UNL     1      -2.475   2.265  11.243  1.00  0.00     0.172 C 
BRANCH  16  17
HETATM   17  O7  UNL     1      -2.416   0.848  11.082  1.00  0.00    -0.400 OA
HETATM   18  H50 UNL     1      -2.422   0.454  11.973  1.00  0.00     0.209 HD
ENDBRANCH  16  17
ENDBRANCH   9  16
ENDBRANCH   7   9
ENDBRANCH   5   6
BRANCH   5  19
HETATM   19  O1  UNL     1      -0.963   6.150  13.973  1.00  0.00    -0.390 OA
HETATM   20  H20 UNL     1      -0.831   5.289  14.400  1.00  0.00     0.210 HD
ENDBRANCH   5  19
ENDBRANCH   3   5
ENDBRANCH   1   3
BRANCH   1  21
HETATM   21  O3  UNL     1      -0.248   7.603  11.739  1.00  0.00    -0.312 OA
BRANCH  21  22
HETATM   22  C15 UNL     1       0.498   8.476  10.874  1.00  0.00     0.170 C 
HETATM   23  C16 UNL     1       0.173   8.094   9.428  1.00  0.00     0.036 C 
HETATM   24  C17 UNL     1       1.354   8.349   8.506  1.00  0.00     0.007 C 
HETATM   25  C18 UNL     1       2.582   7.484   8.869  1.00  0.00    -0.007 C 
HETATM   26  C19 UNL     1       2.585   6.200   8.028  1.00  0.00     0.011 C 
HETATM   27  C20 UNL     1       2.745   7.231  10.426  1.00  0.00    -0.004 C 
HETATM   28  C21 UNL     1       2.261   5.829  10.868  1.00  0.00     0.019 C 
HETATM   29  C22 UNL     1       4.257   7.362  10.760  1.00  0.00     0.023 C 
HETATM   30  C29 UNL     1       1.961   8.291  11.193  1.00  0.00     0.127 A 
HETATM   31  C23 UNL     1       4.599   7.369  12.263  1.00  0.00     0.057 C 
HETATM   32  C24 UNL     1       5.876   8.168  12.546  1.00  0.00     0.015 C 
HETATM   33  C27 UNL     1       3.571   8.018  13.211  1.00  0.00     0.195 C 
HETATM   34  C25 UNL     1       7.162   7.395  12.317  1.00  0.00     0.012 C 
HETATM   35  C26 UNL     1       5.672   8.594  13.985  1.00  0.00     0.176 C 
HETATM   36  O4  UNL     1       4.282   8.918  14.068  1.00  0.00    -0.352 OA
HETATM   37  C28 UNL     1       2.436   8.733  12.559  1.00  0.00     0.223 A 
HETATM   38  O6  UNL     1       2.694   9.523  11.393  1.00  0.00    -0.360 OA
BRANCH  33  39
HETATM   39  O5  UNL     1       3.049   6.991  14.044  1.00  0.00    -0.363 OA
HETATM   40  H46 UNL     1       2.430   7.437  14.650  1.00  0.00     0.213 HD
ENDBRANCH  33  39
ENDBRANCH  21  22
ENDBRANCH   1  21
TORSDOF 15
ENDMDL
