MODEL 1
REMARK minimizedAffinity -9.86577606
REMARK  4 active torsions:
REMARK  status: ('A' for Active; 'I' for Inactive)
REMARK    1  A    between atoms: C4_4  and  C5_5 
REMARK    2  A    between atoms: C5_5  and  C6_7 
REMARK    3  A    between atoms: C6_7  and  C7_8 
REMARK    4  A    between atoms: C7_8  and  C9_10 
ROOT
HETATM    1  C9  UNL     1      -1.609  52.363 -26.154  1.00  0.00    -0.002 C 
HETATM    2  C10 UNL     1      -2.435  52.008 -27.428  1.00  0.00     0.006 C 
HETATM    3  C11 UNL     1      -3.261  50.746 -27.112  1.00  0.00     0.011 C 
HETATM    4  C12 UNL     1      -3.147  50.575 -25.589  1.00  0.00    -0.032 C 
HETATM    5  C13 UNL     1      -4.204  51.544 -24.952  1.00  0.00     0.016 C 
HETATM    6  C14 UNL     1      -3.385  49.130 -25.031  1.00  0.00     0.004 C 
HETATM    7  C15 UNL     1      -4.762  48.559 -25.453  1.00  0.00     0.007 C 
HETATM    8  C16 UNL     1      -5.695  48.030 -24.365  1.00  0.00     0.007 C 
HETATM    9  C17 UNL     1      -5.664  48.883 -23.091  1.00  0.00     0.010 C 
HETATM   10  C18 UNL     1      -6.667  48.417 -21.984  1.00  0.00     0.018 C 
HETATM   11  C19 UNL     1      -6.376  47.004 -21.454  1.00  0.00     0.023 C 
HETATM   12  C20 UNL     1      -8.117  48.467 -22.506  1.00  0.00     0.023 C 
HETATM   13  C21 UNL     1      -6.581  49.381 -20.792  1.00  0.00     0.135 C 
HETATM   14  O2  UNL     1      -7.394  49.350 -19.865  1.00  0.00    -0.297 OA
HETATM   15  C22 UNL     1      -5.481  50.413 -20.801  1.00  0.00     0.080 C 
HETATM   16  C23 UNL     1      -4.165  49.767 -21.199  1.00  0.00     0.018 C 
HETATM   17  C24 UNL     1      -4.241  49.019 -22.526  1.00  0.00    -0.026 A 
HETATM   18  C25 UNL     1      -3.288  47.854 -22.720  1.00  0.00     0.021 A 
HETATM   19  C26 UNL     1      -3.063  49.119 -23.516  1.00  0.00    -0.027 A 
HETATM   20  C27 UNL     1      -1.717  49.767 -23.151  1.00  0.00     0.011 C 
HETATM   21  C28 UNL     1      -1.433  51.112 -23.833  1.00  0.00     0.011 C 
HETATM   22  C29 UNL     1      -1.650  51.025 -25.352  1.00  0.00    -0.032 C 
HETATM   23  C30 UNL     1      -0.587  50.055 -25.953  1.00  0.00     0.016 C 
ENDROOT
BRANCH   1  24
HETATM   24  C7  UNL     1      -0.252  53.035 -26.505  1.00  0.00    -0.007 C 
HETATM   25  C8  UNL     1       0.244  52.681 -27.910  1.00  0.00     0.011 C 
BRANCH  24  26
HETATM   26  C6  UNL     1       0.858  52.725 -25.470  1.00  0.00     0.087 C 
BRANCH  26  27
HETATM   27  C5  UNL     1       0.841  53.618 -24.239  1.00  0.00     0.149 C 
HETATM   28  O1  UNL     1       1.007  54.835 -24.307  1.00  0.00    -0.293 OA
BRANCH  27  29
HETATM   29  C4  UNL     1       0.504  53.020 -22.922  1.00  0.00     0.052 C 
HETATM   30  C2  UNL     1       0.984  53.420 -21.732  1.00  0.00    -0.084 C 
HETATM   31  C1  UNL     1       0.554  52.721 -20.471  1.00  0.00     0.043 C 
HETATM   32  C3  UNL     1       1.921  54.575 -21.515  1.00  0.00     0.043 C 
ENDBRANCH  27  29
ENDBRANCH  26  27
ENDBRANCH  24  26
ENDBRANCH   1  24
TORSDOF 4
ENDMDL
