MODEL 1
REMARK minimizedAffinity -7.42085075
REMARK CNNscore 0.746579051
REMARK CNNaffinity 6.88188124
REMARK  4 active torsions:
REMARK  status: ('A' for Active; 'I' for Inactive)
REMARK    1  A    between atoms: C4_4  and  C5_5 
REMARK    2  A    between atoms: C5_5  and  C6_7 
REMARK    3  A    between atoms: C6_7  and  C7_8 
REMARK    4  A    between atoms: C7_8  and  C9_10 
ROOT
HETATM    1  C9  UNL     1       3.585  52.364 -10.862  1.00  0.00    -0.002 C 
HETATM    2  C10 UNL     1       2.248  53.080 -11.229  1.00  0.00     0.006 C 
HETATM    3  C11 UNL     1       2.125  54.322 -10.321  1.00  0.00     0.011 C 
HETATM    4  C12 UNL     1       3.530  54.508  -9.720  1.00  0.00    -0.032 C 
HETATM    5  C13 UNL     1       4.366  55.248 -10.822  1.00  0.00     0.016 C 
HETATM    6  C14 UNL     1       3.561  55.300  -8.364  1.00  0.00     0.004 C 
HETATM    7  C15 UNL     1       3.595  56.833  -8.556  1.00  0.00     0.007 C 
HETATM    8  C16 UNL     1       3.543  57.654  -7.262  1.00  0.00     0.007 C 
HETATM    9  C17 UNL     1       3.931  56.886  -5.986  1.00  0.00     0.010 C 
HETATM   10  C18 UNL     1       4.295  57.797  -4.775  1.00  0.00     0.018 C 
HETATM   11  C19 UNL     1       3.283  58.949  -4.616  1.00  0.00     0.023 C 
HETATM   12  C20 UNL     1       4.285  56.986  -3.463  1.00  0.00     0.023 C 
HETATM   13  C21 UNL     1       5.696  58.391  -4.952  1.00  0.00     0.135 C 
HETATM   14  O2  UNL     1       6.058  59.396  -4.333  1.00  0.00    -0.297 OA
HETATM   15  C22 UNL     1       6.636  57.727  -5.930  1.00  0.00     0.080 C 
HETATM   16  C23 UNL     1       6.436  56.224  -5.930  1.00  0.00     0.018 C 
HETATM   17  C24 UNL     1       5.016  55.838  -6.294  1.00  0.00    -0.026 A 
HETATM   18  C25 UNL     1       4.578  54.416  -6.056  1.00  0.00     0.021 A 
HETATM   19  C26 UNL     1       4.767  54.884  -7.487  1.00  0.00    -0.027 A 
HETATM   20  C27 UNL     1       5.898  54.179  -8.223  1.00  0.00     0.011 C 
HETATM   21  C28 UNL     1       5.441  52.984  -9.089  1.00  0.00     0.011 C 
HETATM   22  C29 UNL     1       3.952  53.004  -9.486  1.00  0.00    -0.032 C 
HETATM   23  C30 UNL     1       3.128  52.300  -8.374  1.00  0.00     0.016 C 
ENDROOT
BRANCH   1  24
HETATM   24  C7  UNL     1       3.564  50.834 -11.159  1.00  0.00    -0.007 C 
HETATM   25  C8  UNL     1       4.775  49.997 -10.736  1.00  0.00     0.011 C 
BRANCH  24  26
HETATM   26  C6  UNL     1       3.013  50.465 -12.556  1.00  0.00     0.087 C 
BRANCH  26  27
HETATM   27  C5  UNL     1       3.989  50.354 -13.717  1.00  0.00     0.149 C 
HETATM   28  O1  UNL     1       4.762  49.408 -13.854  1.00  0.00    -0.293 OA
BRANCH  27  29
HETATM   29  C4  UNL     1       4.042  51.429 -14.753  1.00  0.00     0.052 C 
HETATM   30  C2  UNL     1       3.075  51.923 -15.550  1.00  0.00    -0.084 C 
HETATM   31  C1  UNL     1       3.389  53.066 -16.483  1.00  0.00     0.043 C 
HETATM   32  C3  UNL     1       1.665  51.418 -15.658  1.00  0.00     0.043 C 
ENDBRANCH  27  29
ENDBRANCH  26  27
ENDBRANCH  24  26
ENDBRANCH   1  24
TORSDOF 4
ENDMDL
