MODEL 1
REMARK minimizedAffinity -6.66980362
REMARK CNNscore 0.486888528
REMARK CNNaffinity 6.47453547
REMARK  9 active torsions:
REMARK  status: ('A' for Active; 'I' for Inactive)
REMARK    1  A    between atoms: C2_2  and  C3_3 
REMARK    2  A    between atoms: C2_2  and  C9_12 
REMARK    3  A    between atoms: C3_3  and  C4_4 
REMARK    4  A    between atoms: C4_4  and  C5_5 
REMARK    5  A    between atoms: C5_5  and  O1_6 
REMARK    6  A    between atoms: C5_5  and  C6_7 
REMARK    7  A    between atoms: C6_7  and  O2_9 
REMARK    8  A    between atoms: C6_7  and  C8_10 
REMARK    9  A    between atoms: C8_10  and  O3_11 
ROOT
HETATM    1  C9  UNL     1      -1.082  10.752  16.640  1.00  0.00    -0.002 C 
HETATM    2  C10 UNL     1       0.132  10.338  17.518  1.00  0.00     0.007 C 
HETATM    3  C11 UNL     1       1.092   9.541  16.612  1.00  0.00     0.015 C 
HETATM    4  C12 UNL     1       0.633   9.847  15.172  1.00  0.00    -0.005 C 
HETATM    5  C13 UNL     1       1.259  11.223  14.781  1.00  0.00     0.021 C 
HETATM    6  C14 UNL     1       1.007   8.928  14.017  1.00  0.00    -0.000 C 
HETATM    7  C15 UNL     1       0.202   8.811  12.927  1.00  0.00    -0.060 C 
HETATM    8  C16 UNL     1      -1.141   9.549  12.861  1.00  0.00     0.036 C 
HETATM    9  C17 UNL     1      -1.572  10.375  14.090  1.00  0.00     0.015 C 
HETATM   10  C18 UNL     1      -0.936   9.848  15.381  1.00  0.00    -0.028 C 
HETATM   11  C19 UNL     1      -1.513   8.431  15.664  1.00  0.00     0.016 C 
HETATM   12  C20 UNL     1       0.553   7.900  11.721  1.00  0.00    -0.014 C 
HETATM   13  C21 UNL     1      -0.114   6.537  12.018  1.00  0.00     0.020 C 
HETATM   14  C22 UNL     1      -0.006   8.463  10.388  1.00  0.00     0.021 C 
HETATM   15  C23 UNL     1       0.441   7.683   9.162  1.00  0.00     0.080 C 
HETATM   16  C24 UNL     1       1.945   7.665   9.073  1.00  0.00     0.135 C 
HETATM   17  O4  UNL     1       2.500   7.952   8.011  1.00  0.00    -0.297 OA
HETATM   18  C25 UNL     1       2.723   7.191  10.309  1.00  0.00     0.018 C 
HETATM   19  C26 UNL     1       4.193   7.655  10.143  1.00  0.00     0.023 C 
HETATM   20  C27 UNL     1       2.735   5.656  10.309  1.00  0.00     0.023 C 
HETATM   21  C28 UNL     1       2.115   7.854  11.595  1.00  0.00     0.020 C 
HETATM   22  C29 UNL     1       2.728   7.338  12.901  1.00  0.00     0.090 C 
HETATM   23  C30 UNL     1       2.309   8.186  14.078  1.00  0.00     0.157 C 
HETATM   24  O5  UNL     1       3.028   8.237  15.075  1.00  0.00    -0.293 OA
ENDROOT
BRANCH   1  25
HETATM   25  C2  UNL     1      -2.413  10.903  17.439  1.00  0.00    -0.014 C 
HETATM   26  C1  UNL     1      -2.614   9.951  18.621  1.00  0.00     0.010 C 
BRANCH  25  27
HETATM   27  C3  UNL     1      -3.640  10.901  16.498  1.00  0.00     0.007 C 
BRANCH  27  28
HETATM   28  C4  UNL     1      -4.016  12.281  15.923  1.00  0.00     0.035 C 
BRANCH  28  29
HETATM   29  C5  UNL     1      -5.190  12.964  16.639  1.00  0.00     0.154 C 
BRANCH  29  30
HETATM   30  O1  UNL     1      -5.948  13.712  15.674  1.00  0.00    -0.392 OA
HETATM   31  H10 UNL     1      -6.578  14.235  16.215  1.00  0.00     0.210 HD
ENDBRANCH  29  30
BRANCH  29  32
HETATM   32  C6  UNL     1      -4.783  13.918  17.794  1.00  0.00     0.101 C 
HETATM   33  C7  UNL     1      -4.800  13.235  19.169  1.00  0.00     0.051 C 
BRANCH  32  34
HETATM   34  O2  UNL     1      -3.406  14.295  17.545  1.00  0.00    -0.385 OA
HETATM   35  H14 UNL     1      -3.284  15.150  18.006  1.00  0.00     0.210 HD
ENDBRANCH  32  34
BRANCH  32  36
HETATM   36  C8  UNL     1      -5.631  15.205  17.795  1.00  0.00     0.204 C 
BRANCH  36  37
HETATM   37  O3  UNL     1      -5.847  15.642  19.141  1.00  0.00    -0.398 OA
HETATM   38  H17 UNL     1      -6.604  15.140  19.494  1.00  0.00     0.209 HD
ENDBRANCH  36  37
ENDBRANCH  32  36
ENDBRANCH  29  32
ENDBRANCH  28  29
ENDBRANCH  27  28
ENDBRANCH  25  27
ENDBRANCH   1  25
TORSDOF 9
ENDMDL
