MODEL 1
REMARK minimizedAffinity -7.72849751
REMARK CNNscore 0.622312129
REMARK CNNaffinity 6.84166384
REMARK  8 active torsions:
REMARK  status: ('A' for Active; 'I' for Inactive)
REMARK    1  A    between atoms: C2_2  and  C30_34 
REMARK    2  A    between atoms: C3_3  and  C4_4 
REMARK    3  A    between atoms: C4_4  and  O1_5 
REMARK    4  A    between atoms: C4_4  and  C5_6 
REMARK    5  A    between atoms: C5_6  and  C6_7 
REMARK    6  A    between atoms: C6_7  and  C8_9 
REMARK    7  A    between atoms: C10_11  and  O2_12 
REMARK    8  A    between atoms: C30_34  and  O6_36 
ROOT
HETATM    1  C8  UNL     1     -12.570   8.729  14.390  1.00  0.00     0.001 C 
HETATM    2  C9  UNL     1     -12.424   9.109  15.895  1.00  0.00     0.038 C 
HETATM    3  C10 UNL     1     -11.047   8.603  16.370  1.00  0.00     0.131 C 
HETATM    4  C11 UNL     1     -10.277   8.293  15.060  1.00  0.00     0.014 C 
HETATM    5  C12 UNL     1      -9.676   9.623  14.505  1.00  0.00     0.023 C 
HETATM    6  C13 UNL     1      -9.104   7.319  15.085  1.00  0.00    -0.058 C 
HETATM    7  C14 UNL     1      -8.743   6.587  14.000  1.00  0.00    -0.000 C 
HETATM    8  C15 UNL     1      -9.605   6.690  12.752  1.00  0.00     0.157 C 
HETATM    9  O3  UNL     1      -9.279   6.144  11.699  1.00  0.00    -0.293 OA
HETATM   10  C16 UNL     1     -10.909   7.481  12.780  1.00  0.00     0.094 C 
HETATM   11  C17 UNL     1     -11.438   7.671  14.200  1.00  0.00    -0.019 C 
HETATM   12  C18 UNL     1     -11.935   6.286  14.728  1.00  0.00     0.017 C 
HETATM   13  C19 UNL     1      -7.560   5.595  14.072  1.00  0.00    -0.008 C 
HETATM   14  C20 UNL     1      -8.160   4.297  14.697  1.00  0.00     0.021 C 
HETATM   15  C21 UNL     1      -6.968   5.175  12.694  1.00  0.00     0.022 C 
HETATM   16  C22 UNL     1      -5.595   4.534  12.794  1.00  0.00     0.080 C 
HETATM   17  C23 UNL     1      -4.594   5.534  13.306  1.00  0.00     0.135 C 
HETATM   18  O4  UNL     1      -3.414   5.457  12.958  1.00  0.00    -0.297 OA
HETATM   19  C24 UNL     1      -5.094   6.615  14.275  1.00  0.00     0.018 C 
HETATM   20  C25 UNL     1      -5.302   7.914  13.474  1.00  0.00     0.023 C 
HETATM   21  C26 UNL     1      -3.956   6.855  15.297  1.00  0.00     0.023 C 
HETATM   22  C27 UNL     1      -6.390   6.111  15.018  1.00  0.00     0.014 C 
HETATM   23  C28 UNL     1      -6.833   7.127  16.098  1.00  0.00     0.011 C 
HETATM   24  C29 UNL     1      -8.323   7.204  16.366  1.00  0.00     0.036 C 
ENDROOT
BRANCH   1  25
HETATM   25  C6  UNL     1     -14.046   8.377  14.022  1.00  0.00    -0.011 C 
HETATM   26  C7  UNL     1     -14.837   7.856  15.227  1.00  0.00     0.010 C 
BRANCH  25  27
HETATM   27  C5  UNL     1     -14.073   7.325  12.878  1.00  0.00     0.040 C 
BRANCH  27  28
HETATM   28  C4  UNL     1     -15.460   6.934  12.338  1.00  0.00     0.142 C 
BRANCH  28  29
HETATM   29  C3  UNL     1     -16.608   7.614  13.033  1.00  0.00     0.018 C 
HETATM   30  C2  UNL     1     -17.447   8.569  12.585  1.00  0.00     0.010 C 
HETATM   31  C1  UNL     1     -18.621   9.056  13.377  1.00  0.00     0.055 C 
BRANCH  30  32
HETATM   32  C30 UNL     1     -17.305   9.214  11.265  1.00  0.00     0.171 C 
HETATM   33  O5  UNL     1     -18.027   9.029  10.301  1.00  0.00    -0.646 OA
BRANCH  32  34
HETATM   34  O6  UNL     1     -16.366  10.176  11.269  1.00  0.00    -0.773 OA
HETATM   35  H44 UNL     1     -16.381  10.486  10.341  1.00  0.00     0.167 HD
ENDBRANCH  32  34
ENDBRANCH  30  32
ENDBRANCH  28  29
BRANCH  28  36
HETATM   36  O1  UNL     1     -15.517   7.203  10.941  1.00  0.00    -0.392 OA
HETATM   37  H6  UNL     1     -14.799   6.701  10.519  1.00  0.00     0.210 HD
ENDBRANCH  28  36
ENDBRANCH  27  28
ENDBRANCH  25  27
ENDBRANCH   1  25
BRANCH   3  38
HETATM   38  O2  UNL     1     -10.424   9.590  17.179  1.00  0.00    -0.394 OA
HETATM   39  H17 UNL     1     -11.013   9.764  17.935  1.00  0.00     0.210 HD
ENDBRANCH   3  38
TORSDOF 8
ENDMDL
