MODEL 1
REMARK minimizedAffinity -8.99906063
REMARK  7 active torsions:
REMARK  status: ('A' for Active; 'I' for Inactive)
REMARK    1  A    between atoms: N1_2  and  C2_3 
REMARK    2  A    between atoms: C2_3  and  C3_4 
REMARK    3  A    between atoms: C5_6  and  O1_7 
REMARK    4  A    between atoms: C29_32  and  N2_33 
REMARK    5  A    between atoms: C29_32  and  C30_34 
REMARK    6  A    between atoms: C30_34  and  C31_35 
REMARK    7  A    between atoms: C31_35  and  O3_36 
ROOT
HETATM    1  C3  UNL     1      -1.072  51.783 -24.676  1.00  0.00    -0.021 A 
HETATM    2  C4  UNL     1      -1.495  51.539 -26.000  1.00  0.00     0.045 A 
HETATM    3  C5  UNL     1      -2.840  51.544 -26.326  1.00  0.00     0.066 A 
HETATM    4  C6  UNL     1      -3.793  51.816 -25.362  1.00  0.00     0.045 A 
HETATM    5  C7  UNL     1      -3.420  52.079 -24.028  1.00  0.00    -0.037 A 
HETATM    6  C8  UNL     1      -2.041  52.013 -23.655  1.00  0.00    -0.042 A 
HETATM    7  C9  UNL     1      -1.608  52.204 -22.200  1.00  0.00     0.044 C 
HETATM    8  C10 UNL     1      -0.986  50.957 -21.495  1.00  0.00    -0.006 C 
HETATM    9  C11 UNL     1      -0.465  51.325 -20.097  1.00  0.00     0.005 C 
HETATM   10  C12 UNL     1      -1.563  51.679 -19.094  1.00  0.00     0.001 C 
HETATM   11  C13 UNL     1      -2.873  50.910 -19.295  1.00  0.00     0.008 C 
HETATM   12  C14 UNL     1      -2.659  49.594 -20.046  1.00  0.00     0.026 C 
HETATM   13  C15 UNL     1      -1.965  49.764 -21.414  1.00  0.00    -0.003 C 
HETATM   14  C16 UNL     1      -1.305  48.409 -21.770  1.00  0.00     0.006 C 
HETATM   15  C17 UNL     1      -2.204  47.200 -21.425  1.00  0.00     0.008 C 
HETATM   16  C18 UNL     1      -3.676  47.616 -21.326  1.00  0.00     0.022 C 
HETATM   17  C19 UNL     1      -4.655  46.448 -21.158  1.00  0.00     0.018 C 
HETATM   18  C20 UNL     1      -5.782  46.894 -20.173  1.00  0.00     0.060 C 
HETATM   19  C21 UNL     1      -5.084  47.056 -18.782  1.00  0.00     0.061 C 
HETATM   20  C22 UNL     1      -4.478  45.729 -18.275  1.00  0.00     0.046 C 
HETATM   21  C23 UNL     1      -5.990  47.564 -17.652  1.00  0.00     0.046 C 
HETATM   22  O2  UNL     1      -3.992  47.984 -18.905  1.00  0.00    -0.367 OA
HETATM   23  C24 UNL     1      -3.912  48.670 -20.192  1.00  0.00     0.086 C 
HETATM   24  C25 UNL     1      -5.296  49.371 -20.432  1.00  0.00     0.139 C 
HETATM   25  C26 UNL     1      -5.228  50.428 -21.470  1.00  0.00    -0.096 C 
HETATM   26  C27 UNL     1      -4.996  51.324 -22.237  1.00  0.00    -0.101 C 
HETATM   27  C28 UNL     1      -4.554  52.442 -23.081  1.00  0.00     0.133 C 
HETATM   28  C29 UNL     1      -6.392  48.259 -20.705  1.00  0.00     0.180 C 
ENDROOT
BRANCH  28  29
HETATM   29  N2  UNL     1      -6.684  48.085 -22.153  1.00  0.00     0.090 N 
HETATM   30  H38 UNL     1      -7.003  48.968 -22.557  1.00  0.00     0.313 HD
HETATM   31  H39 UNL     1      -7.416  47.401 -22.316  1.00  0.00     0.313 HD
ENDBRANCH  28  29
BRANCH  28  32
HETATM   32  C30 UNL     1      -7.747  48.695 -20.071  1.00  0.00     0.069 C 
BRANCH  32  33
HETATM   33  C31 UNL     1      -7.755  48.896 -18.556  1.00  0.00     0.166 C 
BRANCH  33  34
HETATM   34  O3  UNL     1      -8.929  49.619 -18.204  1.00  0.00    -0.401 OA
HETATM   35  H44 UNL     1      -8.921  49.730 -17.237  1.00  0.00     0.209 HD
ENDBRANCH  33  34
ENDBRANCH  32  33
ENDBRANCH  28  32
BRANCH   3  36
HETATM   36  O1  UNL     1      -3.270  51.307 -27.598  1.00  0.00    -0.361 OA
HETATM   37  H8  UNL     1      -2.501  51.081 -28.146  1.00  0.00     0.217 HD
ENDBRANCH   3  36
BRANCH   1  38
HETATM   38  C2  UNL     1       0.431  51.804 -24.445  1.00  0.00     0.308 C 
BRANCH  38  39
HETATM   39  N1  UNL     1       1.125  52.532 -25.506  1.00  0.00     0.083 N 
HETATM   40  C1  UNL     1       2.234  51.756 -26.039  1.00  0.00     0.307 C 
HETATM   41  H4  UNL     1       1.466  53.420 -25.146  1.00  0.00     0.315 HD
ENDBRANCH  38  39
ENDBRANCH   1  38
TORSDOF 7
ENDMDL
