MODEL 1
REMARK minimizedAffinity -8.74270248
REMARK CNNscore 0.779939651
REMARK CNNaffinity 7.41008902
REMARK  11 active torsions:
REMARK  status: ('A' for Active; 'I' for Inactive)
REMARK    1  A    between atoms: C4_4  and  C5_5 
REMARK    2  A    between atoms: C5_5  and  C6_6 
REMARK    3  A    between atoms: C7_7  and  O1_8 
REMARK    4  A    between atoms: C12_13  and  C14_15 
REMARK    5  A    between atoms: C14_15  and  C15_16 
REMARK    6  A    between atoms: C15_16  and  C16_17 
REMARK    7  A    between atoms: C16_17  and  C17_18 
REMARK    8  A    between atoms: C17_18  and  O2_21 
REMARK    9  A    between atoms: C23_26  and  C24_27 
REMARK   10  A    between atoms: C26_29  and  O4_30 
REMARK   11  A    between atoms: C28_32  and  O5_33 
ROOT
HETATM    1  C6  UNL     1      -1.156  48.995 -18.828  1.00  0.00    -0.006 A 
HETATM    2  C7  UNL     1      -0.701  49.140 -17.499  1.00  0.00     0.107 A 
HETATM    3  C8  UNL     1       0.052  50.240 -17.071  1.00  0.00     0.117 A 
HETATM    4  C9  UNL     1       0.391  51.253 -17.960  1.00  0.00     0.035 A 
HETATM    5  C10 UNL     1       1.189  52.386 -17.550  1.00  0.00     0.016 C 
HETATM    6  C11 UNL     1       1.505  52.461 -16.254  1.00  0.00     0.012 C 
HETATM    7  C12 UNL     1       1.068  51.440 -15.219  1.00  0.00     0.082 C 
HETATM    8  C13 UNL     1       2.311  50.937 -14.469  1.00  0.00     0.051 C 
HETATM    9  O3  UNL     1       0.447  50.241 -15.758  1.00  0.00    -0.333 OA
HETATM   10  C20 UNL     1      -0.056  51.116 -19.274  1.00  0.00     0.100 A 
HETATM   11  C21 UNL     1      -0.806  50.035 -19.727  1.00  0.00     0.011 A 
HETATM   12  C22 UNL     1      -1.042  50.293 -21.109  1.00  0.00     0.053 A 
HETATM   13  C23 UNL     1      -0.435  51.495 -21.414  1.00  0.00     0.087 A 
HETATM   14  O6  UNL     1       0.164  51.996 -20.294  1.00  0.00    -0.308 OA
ENDROOT
BRANCH  13  15
HETATM   15  C24 UNL     1      -0.307  52.294 -22.631  1.00  0.00     0.003 A 
HETATM   16  C25 UNL     1      -1.181  52.118 -23.714  1.00  0.00     0.051 A 
HETATM   17  C26 UNL     1      -1.042  52.887 -24.868  1.00  0.00     0.069 A 
HETATM   18  C27 UNL     1      -0.041  53.845 -24.977  1.00  0.00     0.073 A 
HETATM   19  C28 UNL     1       0.826  54.022 -23.905  1.00  0.00     0.069 A 
HETATM   20  C29 UNL     1       0.703  53.261 -22.743  1.00  0.00     0.051 A 
BRANCH  17  21
HETATM   21  O4  UNL     1      -1.922  52.661 -25.887  1.00  0.00    -0.361 OA
HETATM   22  H31 UNL     1      -1.718  53.262 -26.623  1.00  0.00     0.217 HD
ENDBRANCH  17  21
BRANCH  19  23
HETATM   23  O5  UNL     1       1.830  54.946 -23.945  1.00  0.00    -0.361 OA
HETATM   24  H33 UNL     1       1.815  55.394 -24.808  1.00  0.00     0.217 HD
ENDBRANCH  19  23
ENDBRANCH  13  15
BRANCH   1  25
HETATM   25  C5  UNL     1      -1.990  47.804 -19.241  1.00  0.00     0.070 C 
BRANCH  25  26
HETATM   26  C4  UNL     1      -3.452  48.148 -19.353  1.00  0.00    -0.020 C 
HETATM   27  C2  UNL     1      -4.224  48.166 -20.458  1.00  0.00    -0.091 C 
HETATM   28  C1  UNL     1      -3.764  47.811 -21.845  1.00  0.00     0.042 C 
HETATM   29  C3  UNL     1      -5.680  48.545 -20.369  1.00  0.00     0.042 C 
ENDBRANCH  25  26
ENDBRANCH   1  25
BRANCH   2  30
HETATM   30  O1  UNL     1      -0.999  48.160 -16.582  1.00  0.00    -0.357 OA
HETATM   31  H10 UNL     1      -0.610  48.468 -15.740  1.00  0.00     0.217 HD
ENDBRANCH   2  30
BRANCH   7  32
HETATM   32  C14 UNL     1       0.027  52.037 -14.236  1.00  0.00     0.042 C 
BRANCH  32  33
HETATM   33  C15 UNL     1      -0.435  51.113 -13.103  1.00  0.00     0.006 C 
BRANCH  33  34
HETATM   34  C16 UNL     1      -1.272  51.810 -12.015  1.00  0.00     0.037 C 
BRANCH  34  35
HETATM   35  C17 UNL     1      -2.805  51.823 -12.196  1.00  0.00     0.051 C 
HETATM   36  C18 UNL     1      -3.479  52.123 -10.851  1.00  0.00     0.045 C 
HETATM   37  C19 UNL     1      -3.345  50.508 -12.758  1.00  0.00     0.045 C 
BRANCH  35  38
HETATM   38  O2  UNL     1      -3.179  52.863 -13.102  1.00  0.00    -0.391 OA
HETATM   39  H28 UNL     1      -2.869  53.710 -12.735  1.00  0.00     0.210 HD
ENDBRANCH  35  38
ENDBRANCH  34  35
ENDBRANCH  33  34
ENDBRANCH  32  33
ENDBRANCH   7  32
TORSDOF 11
ENDMDL
