MODEL 1
REMARK minimizedAffinity -8.43550014
REMARK  10 active torsions:
REMARK  status: ('A' for Active; 'I' for Inactive)
REMARK    1  A    between atoms: C2_2  and  C3_4 
REMARK    2  A    between atoms: C10_12  and  O3_13 
REMARK    3  A    between atoms: C13_16  and  C14_17 
REMARK    4  A    between atoms: C14_17  and  C16_19 
REMARK    5  A    between atoms: C16_19  and  C17_20 
REMARK    6  A    between atoms: C17_20  and  C18_21 
REMARK    7  A    between atoms: C26_29  and  C27_30 
REMARK    8  A    between atoms: C27_30  and  C28_31 
REMARK    9  A    between atoms: C28_31  and  C29_32 
REMARK   10  A    between atoms: C29_32  and  O4_33 
ROOT
HETATM    1  C3  UNL     1       1.711   6.736  11.541  1.00  0.00     0.151 A 
HETATM    2  O2  UNL     1       0.902   7.261  10.467  1.00  0.00    -0.360 OA
HETATM    3  C4  UNL     1       0.753   5.875  10.754  1.00  0.00     0.166 A 
HETATM    4  C5  UNL     1      -0.475   5.417  11.447  1.00  0.00     0.041 C 
HETATM    5  C6  UNL     1      -1.219   6.506  12.256  1.00  0.00     0.006 C 
HETATM    6  C7  UNL     1      -0.280   7.547  13.034  1.00  0.00    -0.030 C 
HETATM    7  C8  UNL     1      -0.436   8.974  12.419  1.00  0.00     0.016 C 
HETATM    8  C9  UNL     1      -0.700   7.687  14.540  1.00  0.00     0.042 C 
HETATM    9  C10 UNL     1      -2.205   7.705  14.903  1.00  0.00     0.128 C 
HETATM   10  C11 UNL     1      -3.145   6.980  13.912  1.00  0.00    -0.006 C 
HETATM   11  C12 UNL     1      -3.760   8.043  12.941  1.00  0.00     0.019 C 
HETATM   12  C13 UNL     1      -4.352   6.152  14.496  1.00  0.00     0.001 C 
HETATM   13  C22 UNL     1      -4.648   5.132  13.353  1.00  0.00     0.007 C 
HETATM   14  C23 UNL     1      -3.451   5.149  12.389  1.00  0.00     0.011 C 
HETATM   15  C24 UNL     1      -2.327   5.863  13.164  1.00  0.00    -0.029 C 
HETATM   16  C25 UNL     1      -1.696   4.781  14.105  1.00  0.00     0.016 C 
HETATM   17  C26 UNL     1       1.259   7.098  12.962  1.00  0.00     0.039 C 
ENDROOT
BRANCH  12  18
HETATM   18  C14 UNL     1      -5.645   6.888  14.974  1.00  0.00    -0.013 C 
HETATM   19  C15 UNL     1      -5.350   8.291  15.516  1.00  0.00     0.010 C 
BRANCH  18  20
HETATM   20  C16 UNL     1      -6.375   6.044  16.057  1.00  0.00     0.008 C 
BRANCH  20  21
HETATM   21  C17 UNL     1      -7.829   5.703  15.708  1.00  0.00     0.028 C 
BRANCH  21  22
HETATM   22  C18 UNL     1      -8.127   6.018  14.267  1.00  0.00    -0.025 C 
HETATM   23  C19 UNL     1      -8.213   5.156  13.234  1.00  0.00    -0.091 C 
HETATM   24  C20 UNL     1      -7.974   3.674  13.319  1.00  0.00     0.042 C 
HETATM   25  C21 UNL     1      -8.552   5.649  11.851  1.00  0.00     0.042 C 
ENDBRANCH  21  22
ENDBRANCH  20  21
ENDBRANCH  18  20
ENDBRANCH  12  18
BRANCH   9  26
HETATM   26  O3  UNL     1      -2.318   7.138  16.211  1.00  0.00    -0.395 OA
HETATM   27  H14 UNL     1      -1.815   7.704  16.823  1.00  0.00     0.210 HD
ENDBRANCH   9  26
BRANCH  17  28
HETATM   28  C27 UNL     1       2.229   8.122  13.625  1.00  0.00     0.011 C 
BRANCH  28  29
HETATM   29  C28 UNL     1       2.781   7.770  15.013  1.00  0.00     0.027 C 
BRANCH  29  30
HETATM   30  C29 UNL     1       4.247   8.125  15.221  1.00  0.00     0.164 C 
BRANCH  30  31
HETATM   31  O4  UNL     1       4.947   6.951  15.613  1.00  0.00    -0.401 OA
HETATM   32  H48 UNL     1       5.846   7.224  15.862  1.00  0.00     0.209 HD
ENDBRANCH  30  31
ENDBRANCH  29  30
ENDBRANCH  28  29
ENDBRANCH  17  28
BRANCH   1  33
HETATM   33  C2  UNL     1       3.147   6.519  11.200  1.00  0.00     0.160 C 
HETATM   34  C1  UNL     1       3.439   5.598  10.052  1.00  0.00     0.094 C 
HETATM   35  O1  UNL     1       4.021   7.052  11.876  1.00  0.00    -0.295 OA
ENDBRANCH   1  33
TORSDOF 10
ENDMDL
