MODEL 1
REMARK minimizedAffinity -8.43867302
REMARK CNNscore 0.421808958
REMARK CNNaffinity 6.62719345
REMARK  12 active torsions:
REMARK  status: ('A' for Active; 'I' for Inactive)
REMARK    1  A    between atoms: C3_3  and  O1_4 
REMARK    2  A    between atoms: N1_14  and  O2_16 
REMARK    3  A    between atoms: O2_16  and  C13_17 
REMARK    4  A    between atoms: C13_17  and  C14_18 
REMARK       I    between atoms: C14_18  and  N2_20 
REMARK    5  A    between atoms: N2_20  and  C15_21 
REMARK    6  A    between atoms: C15_21  and  C16_22 
REMARK    7  A    between atoms: C15_21  and  C23_33 
REMARK       I    between atoms: C16_22  and  N3_24 
REMARK    8  A    between atoms: N3_24  and  C17_25 
REMARK    9  A    between atoms: C17_25  and  C18_26 
REMARK   10  A    between atoms: C17_25  and  C19_29 
REMARK   11  A    between atoms: C18_26  and  O6_28 
REMARK   12  A    between atoms: C19_29  and  C21_31 
ROOT
HETATM    1  C1  UNL     1      -7.663   6.055  16.253  1.00  0.00     0.015 C 
HETATM    2  C2  UNL     1      -6.576   6.124  15.743  1.00  0.00    -0.078 C 
HETATM    3  C3  UNL     1      -5.230   6.199  15.138  1.00  0.00     0.128 C 
HETATM    4  C4  UNL     1      -4.920   4.930  14.315  1.00  0.00     0.052 C 
HETATM    5  C5  UNL     1      -4.518   5.394  12.914  1.00  0.00     0.010 C 
HETATM    6  C6  UNL     1      -4.056   6.849  13.070  1.00  0.00     0.002 C 
HETATM    7  C7  UNL     1      -2.525   7.031  13.297  1.00  0.00    -0.004 C 
HETATM    8  C8  UNL     1      -1.833   5.979  14.185  1.00  0.00     0.010 C 
HETATM    9  C9  UNL     1      -0.326   6.192  14.279  1.00  0.00     0.035 C 
HETATM   10  C10 UNL     1       0.018   7.595  14.703  1.00  0.00    -0.069 C 
HETATM   11  C11 UNL     1       0.853   7.794  15.738  1.00  0.00     0.030 C 
HETATM   12  C12 UNL     1       1.295   9.160  16.112  1.00  0.00     0.032 C 
HETATM   13  N1  UNL     1       1.807   9.329  17.295  1.00  0.00    -0.271 N 
ATOM     14  H1  UNL     1       1.889   8.586  17.990  1.00  0.00     0.194 HD
HETATM   15  C26 UNL     1       1.106  10.238  15.067  1.00  0.00     0.060 C 
HETATM   16  C27 UNL     1      -0.317  10.119  14.530  1.00  0.00     0.020 C 
HETATM   17  C28 UNL     1      -0.625   8.725  13.895  1.00  0.00    -0.016 C 
HETATM   18  C29 UNL     1       0.008   8.733  12.475  1.00  0.00     0.020 C 
HETATM   19  C30 UNL     1      -2.187   8.480  13.762  1.00  0.00     0.002 C 
HETATM   20  C31 UNL     1      -3.004   8.786  15.038  1.00  0.00     0.007 C 
HETATM   21  C32 UNL     1      -4.510   8.697  14.801  1.00  0.00     0.014 C 
HETATM   22  C33 UNL     1      -5.030   7.402  14.150  1.00  0.00     0.003 C 
HETATM   23  C34 UNL     1      -6.376   7.766  13.444  1.00  0.00     0.020 C 
ENDROOT
BRANCH   3  24
HETATM   24  O1  UNL     1      -4.303   6.269  16.217  1.00  0.00    -0.377 OA
HETATM   25  H2  UNL     1      -4.529   5.558  16.840  1.00  0.00     0.211 HD
ENDBRANCH   3  24
BRANCH  13  26
HETATM   26  O2  UNL     1       2.235  10.647  17.510  1.00  0.00    -0.271 OA
BRANCH  26  27
HETATM   27  C13 UNL     1       1.826  11.051  18.810  1.00  0.00     0.303 C 
BRANCH  27  28
HETATM   28  C14 UNL     1       2.758  10.540  19.909  1.00  0.00     0.244 C 
HETATM   29  O3  UNL     1       2.695   9.414  20.396  1.00  0.00    -0.271 OA
HETATM   30  N2  UNL     1       3.661  11.496  20.353  1.00  0.00    -0.346 N 
HETATM   31  H16 UNL     1       3.977  12.151  19.644  1.00  0.00     0.163 HD
BRANCH  30  32
HETATM   32  C15 UNL     1       4.667  11.150  21.360  1.00  0.00     0.180 C 
BRANCH  32  33
HETATM   33  C16 UNL     1       5.970  11.904  21.001  1.00  0.00     0.241 C 
HETATM   34  O4  UNL     1       6.510  11.789  19.902  1.00  0.00    -0.271 OA
HETATM   35  N3  UNL     1       6.442  12.749  21.986  1.00  0.00    -0.344 N 
HETATM   36  H18 UNL     1       6.115  12.546  22.926  1.00  0.00     0.163 HD
BRANCH  35  37
HETATM   37  C17 UNL     1       7.821  13.265  21.936  1.00  0.00     0.186 C 
BRANCH  37  38
HETATM   38  C18 UNL     1       8.515  12.567  23.110  1.00  0.00     0.163 C 
HETATM   39  O5  UNL     1       9.449  13.022  23.753  1.00  0.00    -0.648 OA
BRANCH  38  40
HETATM   40  O6  UNL     1       8.031  11.336  23.377  1.00  0.00    -0.775 OA
HETATM   41  H20 UNL     1       8.537  11.046  24.167  1.00  0.00     0.167 HD
ENDBRANCH  38  40
ENDBRANCH  37  38
BRANCH  37  42
HETATM   42  C19 UNL     1       7.846  14.810  22.069  1.00  0.00     0.014 C 
HETATM   43  C20 UNL     1       7.744  15.280  23.531  1.00  0.00     0.012 C 
BRANCH  42  44
HETATM   44  C21 UNL     1       9.128  15.433  21.470  1.00  0.00     0.002 C 
HETATM   45  C22 UNL     1       9.557  16.744  22.110  1.00  0.00     0.005 C 
ENDBRANCH  42  44
ENDBRANCH  37  42
ENDBRANCH  35  37
ENDBRANCH  32  33
BRANCH  32  46
HETATM   46  C23 UNL     1       4.125  11.456  22.775  1.00  0.00     0.009 C 
HETATM   47  C24 UNL     1       3.035  12.529  22.762  1.00  0.00     0.012 C 
HETATM   48  C25 UNL     1       3.641  10.216  23.529  1.00  0.00     0.012 C 
ENDBRANCH  32  46
ENDBRANCH  30  32
ENDBRANCH  27  28
ENDBRANCH  26  27
ENDBRANCH  13  26
TORSDOF 12
ENDMDL
