MODEL 1
REMARK minimizedAffinity -8.1711731
REMARK CNNscore 0.425595105
REMARK CNNaffinity 6.36889124
REMARK  11 active torsions:
REMARK  status: ('A' for Active; 'I' for Inactive)
REMARK    1  A    between atoms: C3_4  and  O2_5 
REMARK    2  A    between atoms: O2_5  and  C4_6 
REMARK    3  A    between atoms: C7_9  and  C8_10 
REMARK    4  A    between atoms: N1_11  and  C9_13 
REMARK    5  A    between atoms: C9_13  and  C10_14 
REMARK    6  A    between atoms: C10_14  and  C11_15 
REMARK    7  A    between atoms: C22_26  and  C23_27 
REMARK    8  A    between atoms: C29_35  and  O5_36 
REMARK    9  A    between atoms: C33_40  and  O6_41 
REMARK   10  A    between atoms: C36_44  and  O7_45 
REMARK   11  A    between atoms: C37_46  and  O8_47 
ROOT
HETATM    1  C4  UNL     1      -2.984  12.889  18.870  1.00  0.00     0.127 C 
HETATM    2  C5  UNL     1      -2.654  11.417  18.572  1.00  0.00     0.033 C 
HETATM    3  C6  UNL     1      -1.346  10.971  19.214  1.00  0.00     0.021 C 
HETATM    4  C7  UNL     1      -0.092  11.794  18.741  1.00  0.00     0.026 C 
HETATM    5  C17 UNL     1       0.888  11.926  19.979  1.00  0.00     0.009 C 
HETATM    6  C18 UNL     1       1.453  10.577  20.474  1.00  0.00     0.007 C 
HETATM    7  C19 UNL     1       2.319  10.737  21.721  1.00  0.00     0.013 C 
HETATM    8  C20 UNL     1       3.519  11.705  21.515  1.00  0.00    -0.005 C 
HETATM    9  C21 UNL     1       4.551  11.026  20.591  1.00  0.00     0.019 C 
HETATM   10  C22 UNL     1       4.100  12.082  22.924  1.00  0.00     0.028 C 
HETATM   11  C27 UNL     1       3.183  13.227  23.412  1.00  0.00     0.013 C 
HETATM   12  C28 UNL     1       2.407  13.751  22.199  1.00  0.00     0.040 C 
HETATM   13  C29 UNL     1       3.008  13.063  20.961  1.00  0.00     0.070 C 
HETATM   14  C30 UNL     1       2.032  12.943  19.755  1.00  0.00     0.026 C 
HETATM   15  C31 UNL     1       1.449  14.313  19.377  1.00  0.00     0.011 C 
HETATM   16  C32 UNL     1       0.614  14.220  18.116  1.00  0.00     0.039 C 
HETATM   17  C33 UNL     1      -0.538  13.206  18.194  1.00  0.00     0.073 C 
HETATM   18  C34 UNL     1      -1.711  13.737  19.048  1.00  0.00     0.071 C 
ENDROOT
BRANCH   1  19
HETATM   19  O2  UNL     1      -3.756  13.345  17.758  1.00  0.00    -0.356 OA
BRANCH  19  20
HETATM   20  C3  UNL     1      -4.046  14.734  17.692  1.00  0.00     0.263 C 
HETATM   21  O1  UNL     1      -5.240  14.986  18.437  1.00  0.00    -0.354 OA
HETATM   22  C2  UNL     1      -6.469  14.603  17.795  1.00  0.00     0.151 C 
HETATM   23  C1  UNL     1      -7.345  13.928  18.849  1.00  0.00     0.042 C 
HETATM   24  C37 UNL     1      -6.293  13.713  16.553  1.00  0.00     0.175 C 
HETATM   25  C36 UNL     1      -5.317  14.370  15.561  1.00  0.00     0.154 C 
HETATM   26  C35 UNL     1      -4.242  15.205  16.254  1.00  0.00     0.095 C 
BRANCH  24  27
HETATM   27  O8  UNL     1      -7.544  13.492  15.888  1.00  0.00    -0.390 OA
HETATM   28  H51 UNL     1      -7.353  12.856  15.172  1.00  0.00     0.210 HD
ENDBRANCH  24  27
BRANCH  25  29
HETATM   29  O7  UNL     1      -4.709  13.338  14.762  1.00  0.00    -0.393 OA
HETATM   30  H49 UNL     1      -4.278  13.778  14.008  1.00  0.00     0.210 HD
ENDBRANCH  25  29
ENDBRANCH  19  20
ENDBRANCH   1  19
BRANCH  17  31
HETATM   31  O6  UNL     1      -0.997  13.086  16.836  1.00  0.00    -0.389 OA
HETATM   32  H43 UNL     1      -1.560  13.862  16.617  1.00  0.00     0.210 HD
ENDBRANCH  17  31
BRANCH   4  33
HETATM   33  C8  UNL     1       0.610  11.054  17.592  1.00  0.00     0.068 C 
HETATM   34  N1  UNL     1      -0.009  10.195  16.852  1.00  0.00    -0.401 N 
ATOM     35  H1  UNL     1      -0.990   9.954  16.986  1.00  0.00     0.158 HD
BRANCH  34  36
HETATM   36  C9  UNL     1       0.825   9.596  15.803  1.00  0.00     0.123 C 
BRANCH  36  37
HETATM   37  C10 UNL     1       0.097   9.672  14.456  1.00  0.00     0.058 C 
BRANCH  37  38
HETATM   38  C11 UNL     1       0.167   8.393  13.656  1.00  0.00    -0.057 A 
HETATM   39  C12 UNL     1      -0.591   8.240  12.488  1.00  0.00     0.007 A 
HETATM   40  C13 UNL     1      -0.527   7.052  11.755  1.00  0.00     0.001 A 
HETATM   41  C14 UNL     1       0.291   6.008  12.184  1.00  0.00     0.000 A 
HETATM   42  C15 UNL     1       1.041   6.148  13.350  1.00  0.00     0.001 A 
HETATM   43  C16 UNL     1       0.977   7.332  14.085  1.00  0.00     0.007 A 
ENDBRANCH  37  38
ENDBRANCH  36  37
ENDBRANCH  34  36
ENDBRANCH   4  33
BRANCH  13  44
HETATM   44  O5  UNL     1       4.109  13.884  20.550  1.00  0.00    -0.389 OA
HETATM   45  H37 UNL     1       4.483  13.514  19.731  1.00  0.00     0.210 HD
ENDBRANCH  13  44
BRANCH  10  46
HETATM   46  C23 UNL     1       5.567  12.427  22.994  1.00  0.00    -0.045 A 
HETATM   47  C24 UNL     1       6.628  11.619  23.012  1.00  0.00     0.087 A 
HETATM   48  C25 UNL     1       7.815  12.465  23.088  1.00  0.00     0.283 A 
HETATM   49  O3  UNL     1       8.959  12.060  23.162  1.00  0.00    -0.260 OA
HETATM   50  O4  UNL     1       7.435  13.770  23.074  1.00  0.00    -0.314 OA
HETATM   51  C26 UNL     1       6.013  13.841  23.013  1.00  0.00     0.213 A 
ENDBRANCH  10  46
TORSDOF 11
ENDMDL
