MODEL 1
REMARK minimizedAffinity -7.80560255
REMARK CNNscore 0.536937177
REMARK CNNaffinity 7.08998108
REMARK  13 active torsions:
REMARK  status: ('A' for Active; 'I' for Inactive)
REMARK    1  A    between atoms: O1_2  and  C2_3 
REMARK    2  A    between atoms: C2_3  and  C3_4 
REMARK    3  A    between atoms: C3_4  and  C4_5 
REMARK    4  A    between atoms: C4_5  and  N1_6 
REMARK    5  A    between atoms: N1_6  and  C5_7 
REMARK    6  A    between atoms: C5_7  and  C6_8 
REMARK    7  A    between atoms: C10_12  and  O2_13 
REMARK    8  A    between atoms: C16_19  and  O3_20 
REMARK    9  A    between atoms: C20_24  and  C21_25 
REMARK   10  A    between atoms: C21_25  and  C23_27 
REMARK   11  A    between atoms: C31_35  and  O4_36 
REMARK   12  A    between atoms: C34_39  and  C35_40 
REMARK   13  A    between atoms: C36_42  and  O6_43 
ROOT
HETATM    1  C6  UNL     1      -5.476  50.756 -22.108  1.00  0.00    -0.022 C 
HETATM    2  C7  UNL     1      -6.455  49.910 -22.512  1.00  0.00    -0.014 C 
HETATM    3  C8  UNL     1      -6.981  48.843 -21.585  1.00  0.00     0.021 C 
HETATM    4  C9  UNL     1      -8.436  48.378 -21.694  1.00  0.00     0.051 C 
HETATM    5  C10 UNL     1      -8.537  47.431 -20.474  1.00  0.00     0.098 C 
HETATM    6  C11 UNL     1      -7.821  48.257 -19.332  1.00  0.00    -0.002 C 
HETATM    7  C12 UNL     1      -7.081  47.371 -18.322  1.00  0.00     0.019 C 
HETATM    8  C13 UNL     1      -8.858  49.138 -18.573  1.00  0.00     0.013 C 
HETATM    9  C14 UNL     1     -10.107  48.396 -18.131  1.00  0.00     0.010 C 
HETATM   10  C15 UNL     1     -10.871  47.811 -19.340  1.00  0.00     0.041 C 
HETATM   11  C16 UNL     1      -9.951  46.848 -20.108  1.00  0.00     0.095 C 
HETATM   12  C17 UNL     1     -10.660  46.246 -21.339  1.00  0.00     0.049 C 
HETATM   13  C18 UNL     1     -12.187  46.504 -21.432  1.00  0.00     0.025 C 
HETATM   14  C19 UNL     1     -12.691  45.682 -22.647  1.00  0.00     0.012 C 
HETATM   15  C20 UNL     1     -14.196  45.620 -23.000  1.00  0.00    -0.010 C 
HETATM   16  C28 UNL     1     -14.951  46.922 -22.674  1.00  0.00     0.005 C 
HETATM   17  C29 UNL     1     -14.939  47.404 -21.218  1.00  0.00     0.010 C 
HETATM   18  C30 UNL     1     -14.457  46.370 -20.193  1.00  0.00     0.050 C 
HETATM   19  C31 UNL     1     -15.099  46.599 -18.820  1.00  0.00     0.125 C 
HETATM   20  C32 UNL     1     -14.647  47.889 -18.154  1.00  0.00     0.033 C 
HETATM   21  C33 UNL     1     -13.231  48.320 -18.558  1.00  0.00     0.023 C 
HETATM   22  C34 UNL     1     -12.263  47.155 -18.917  1.00  0.00     0.051 C 
HETATM   23  C36 UNL     1     -12.895  46.242 -20.075  1.00  0.00     0.082 C 
HETATM   24  C37 UNL     1      -6.882  49.262 -20.106  1.00  0.00     0.036 C 
HETATM   25  C38 UNL     1      -5.438  49.579 -19.885  1.00  0.00    -0.035 C 
HETATM   26  C39 UNL     1      -4.438  48.979 -19.255  1.00  0.00     0.088 C 
HETATM   27  C40 UNL     1      -3.222  49.682 -19.665  1.00  0.00     0.284 C 
HETATM   28  O7  UNL     1      -2.104  49.409 -19.254  1.00  0.00    -0.260 OA
HETATM   29  O8  UNL     1      -3.525  50.644 -20.581  1.00  0.00    -0.304 OA
HETATM   30  C41 UNL     1      -4.938  50.748 -20.676  1.00  0.00     0.192 C 
ENDROOT
BRANCH   1  31
HETATM   31  C5  UNL     1      -4.934  51.833 -23.011  1.00  0.00     0.306 C 
BRANCH  31  32
HETATM   32  N1  UNL     1      -5.085  51.421 -24.402  1.00  0.00     0.087 N 
HETATM   33  H10 UNL     1      -5.882  51.904 -24.820  1.00  0.00     0.316 HD
BRANCH  32  34
HETATM   34  C4  UNL     1      -3.874  51.668 -25.177  1.00  0.00     0.272 C 
BRANCH  34  35
HETATM   35  C3  UNL     1      -2.865  52.500 -24.380  1.00  0.00     0.056 C 
BRANCH  35  36
HETATM   36  C2  UNL     1      -1.426  52.336 -24.870  1.00  0.00     0.168 C 
BRANCH  36  37
HETATM   37  O1  UNL     1      -0.836  53.622 -25.071  1.00  0.00    -0.396 OA
HETATM   38  C1  UNL     1       0.560  53.628 -24.802  1.00  0.00     0.201 C 
ENDBRANCH  36  37
ENDBRANCH  35  36
ENDBRANCH  34  35
ENDBRANCH  32  34
ENDBRANCH  31  32
ENDBRANCH   1  31
BRANCH   5  39
HETATM   39  O2  UNL     1      -7.714  46.272 -20.782  1.00  0.00    -0.386 OA
HETATM   40  H17 UNL     1      -8.055  45.865 -21.600  1.00  0.00     0.210 HD
ENDBRANCH   5  39
BRANCH  11  41
HETATM   41  O3  UNL     1      -9.701  45.741 -19.213  1.00  0.00    -0.386 OA
HETATM   42  H26 UNL     1      -8.842  45.360 -19.479  1.00  0.00     0.210 HD
ENDBRANCH  11  41
BRANCH  22  43
HETATM   43  C35 UNL     1     -12.020  46.338 -17.629  1.00  0.00     0.244 C 
HETATM   44  O5  UNL     1     -12.377  46.702 -16.507  1.00  0.00    -0.306 OA
ENDBRANCH  22  43
BRANCH  23  45
HETATM   45  O6  UNL     1     -12.646  44.852 -19.783  1.00  0.00    -0.388 OA
HETATM   46  H58 UNL     1     -13.298  44.585 -19.097  1.00  0.00     0.210 HD
ENDBRANCH  23  45
BRANCH  15  47
HETATM   47  C21 UNL     1     -14.422  45.167 -24.504  1.00  0.00    -0.011 C 
HETATM   48  C22 UNL     1     -15.918  45.197 -24.876  1.00  0.00     0.011 C 
BRANCH  47  49
HETATM   49  C23 UNL     1     -13.566  46.029 -25.490  1.00  0.00    -0.010 C 
HETATM   50  C24 UNL     1     -14.303  46.724 -26.645  1.00  0.00     0.005 C 
HETATM   51  C25 UNL     1     -13.180  47.173 -27.574  1.00  0.00     0.000 C 
HETATM   52  C26 UNL     1     -12.072  46.132 -27.401  1.00  0.00     0.000 C 
HETATM   53  C27 UNL     1     -12.534  45.203 -26.279  1.00  0.00     0.005 C 
ENDBRANCH  47  49
ENDBRANCH  15  47
BRANCH  19  54
HETATM   54  O4  UNL     1     -14.737  45.478 -18.006  1.00  0.00    -0.395 OA
HETATM   55  H52 UNL     1     -15.390  45.406 -17.279  1.00  0.00     0.210 HD
ENDBRANCH  19  54
TORSDOF 13
ENDMDL
