MODEL 1
REMARK minimizedAffinity -8.7017498
REMARK  5 active torsions:
REMARK  status: ('A' for Active; 'I' for Inactive)
REMARK    1  A    between atoms: C2_5  and  C3_6 
REMARK    2  A    between atoms: C5_11  and  C6_12 
REMARK       I    between atoms: C6_12  and  N3_14 
REMARK    3  A    between atoms: N3_14  and  C7_15 
REMARK    4  A    between atoms: C10_18  and  S1_19 
REMARK    5  A    between atoms: S1_19  and  N4_22 
ROOT
HETATM    1  C7  UNL     1      -2.722   5.743  12.445  1.00  0.00     0.035 A 
HETATM    2  C8  UNL     1      -2.141   4.727  11.680  1.00  0.00     0.031 A 
HETATM    3  C9  UNL     1      -0.784   4.779  11.344  1.00  0.00     0.027 A 
HETATM    4  C10 UNL     1      -0.003   5.849  11.779  1.00  0.00     0.074 A 
HETATM    5  C16 UNL     1      -0.567   6.877  12.535  1.00  0.00     0.027 A 
HETATM    6  C17 UNL     1      -1.923   6.818  12.865  1.00  0.00     0.031 A 
ENDROOT
BRANCH   1   7
HETATM    7  N3  UNL     1      -4.082   5.773  12.825  1.00  0.00    -0.322 N 
HETATM    8  C6  UNL     1      -4.940   4.700  13.000  1.00  0.00     0.274 C 
HETATM    9  O1  UNL     1      -4.614   3.526  12.881  1.00  0.00    -0.266 OA
HETATM   10  H5  UNL     1      -4.457   6.690  13.013  1.00  0.00     0.169 HD
BRANCH   8  11
HETATM   11  C5  UNL     1      -6.300   5.078  13.365  1.00  0.00     0.120 A 
HETATM   12  N1  UNL     1      -7.382   4.230  13.291  1.00  0.00    -0.291 N 
HETATM   13  C1  UNL     1      -7.392   2.846  12.867  1.00  0.00     0.178 C 
HETATM   14  N2  UNL     1      -8.544   4.790  13.681  1.00  0.00    -0.294 N 
HETATM   15  C2  UNL     1      -8.225   6.053  14.008  1.00  0.00     0.134 A 
ATOM     16  H2  UNL     1      -9.465   4.352  13.719  1.00  0.00     0.187 HD
HETATM   17  C4  UNL     1      -6.833   6.273  13.824  1.00  0.00     0.072 A 
BRANCH  15  18
HETATM   18  C3  UNL     1      -9.239   7.057  14.493  1.00  0.00     0.434 C 
HETATM   19  F1  UNL     1     -10.259   7.237  13.613  1.00  0.00    -0.165 F 
HETATM   20  F2  UNL     1      -9.812   6.656  15.664  1.00  0.00    -0.165 F 
HETATM   21  F3  UNL     1      -8.694   8.276  14.734  1.00  0.00    -0.165 F 
ENDBRANCH  15  18
ENDBRANCH   8  11
ENDBRANCH   1   7
BRANCH   4  22
HETATM   22  S1  UNL     1       1.716   5.899  11.339  1.00  0.00     0.243 S 
HETATM   23  O2  UNL     1       2.432   6.416  12.487  1.00  0.00    -0.206 OA
HETATM   24  O3  UNL     1       2.072   4.628  10.742  1.00  0.00    -0.206 OA
BRANCH  22  25
HETATM   25  N4  UNL     1       1.759   7.076  10.099  1.00  0.00    -0.206 NA
HETATM   26  C11 UNL     1       0.453   7.356   9.436  1.00  0.00     0.107 C 
HETATM   27  C12 UNL     1       0.657   8.239   8.212  1.00  0.00     0.015 C 
HETATM   28  C13 UNL     1       1.512   7.540   7.156  1.00  0.00     0.002 C 
HETATM   29  C14 UNL     1       2.466   6.518   7.769  1.00  0.00     0.015 C 
HETATM   30  C15 UNL     1       2.915   6.935   9.164  1.00  0.00     0.107 C 
ENDBRANCH  22  25
ENDBRANCH   4  22
TORSDOF 5
ENDMDL
