MODEL 1
REMARK minimizedAffinity -7.50592947
REMARK CNNscore 0.844155192
REMARK CNNaffinity 7.30537415
REMARK  7 active torsions:
REMARK  status: ('A' for Active; 'I' for Inactive)
REMARK    1  A    between atoms: C4_4  and  C5_5 
REMARK    2  A    between atoms: C5_5  and  C6_6 
REMARK    3  A    between atoms: C6_6  and  C7_7 
REMARK    4  A    between atoms: C7_7  and  C9_9 
REMARK    5  A    between atoms: C22_22  and  O1_23 
REMARK    6  A    between atoms: C23_24  and  O2_25 
REMARK    7  A    between atoms: C24_26  and  O3_27 
ROOT
HETATM    1  C9  UNL     1       4.744  54.799  -8.497  1.00  0.00    -0.002 C 
HETATM    2  C10 UNL     1       4.231  56.255  -8.316  1.00  0.00     0.007 C 
HETATM    3  C11 UNL     1       2.729  56.275  -8.652  1.00  0.00     0.015 C 
HETATM    4  C12 UNL     1       2.313  54.798  -8.666  1.00  0.00    -0.013 C 
HETATM    5  C13 UNL     1       2.047  54.382  -7.186  1.00  0.00     0.021 C 
HETATM    6  C14 UNL     1       1.052  54.397  -9.424  1.00  0.00    -0.068 C 
HETATM    7  C15 UNL     1       0.938  53.142  -9.929  1.00  0.00    -0.065 C 
HETATM    8  C16 UNL     1       2.093  52.141  -9.843  1.00  0.00     0.036 C 
HETATM    9  C17 UNL     1       3.420  52.624  -9.216  1.00  0.00     0.015 C 
HETATM   10  C18 UNL     1       3.588  54.146  -9.327  1.00  0.00    -0.029 C 
HETATM   11  C19 UNL     1       3.755  54.524 -10.834  1.00  0.00     0.016 C 
HETATM   12  C20 UNL     1      -0.345  52.670 -10.664  1.00  0.00     0.012 C 
HETATM   13  C21 UNL     1      -0.046  52.843 -12.179  1.00  0.00     0.023 C 
HETATM   14  C22 UNL     1      -0.697  51.172 -10.391  1.00  0.00     0.162 C 
HETATM   15  C23 UNL     1      -1.996  50.743 -11.088  1.00  0.00     0.177 C 
HETATM   16  C24 UNL     1      -3.180  51.627 -10.680  1.00  0.00     0.153 C 
HETATM   17  C25 UNL     1      -2.906  53.127 -10.899  1.00  0.00     0.018 C 
HETATM   18  C26 UNL     1      -4.107  53.944 -10.395  1.00  0.00     0.013 C 
HETATM   19  C27 UNL     1      -1.575  53.541 -10.206  1.00  0.00     0.007 C 
HETATM   20  C28 UNL     1      -1.254  55.033 -10.357  1.00  0.00     0.010 C 
HETATM   21  C29 UNL     1      -0.049  55.428  -9.506  1.00  0.00     0.036 C 
ENDROOT
BRANCH   1  22
HETATM   22  C7  UNL     1       6.213  54.733  -9.024  1.00  0.00    -0.014 C 
HETATM   23  C8  UNL     1       6.726  53.286  -9.104  1.00  0.00     0.010 C 
BRANCH  22  24
HETATM   24  C6  UNL     1       7.218  55.521  -8.131  1.00  0.00     0.008 C 
BRANCH  24  25
HETATM   25  C5  UNL     1       7.146  55.216  -6.631  1.00  0.00     0.028 C 
BRANCH  25  26
HETATM   26  C4  UNL     1       7.138  56.487  -5.823  1.00  0.00    -0.025 C 
HETATM   27  C2  UNL     1       8.179  57.104  -5.228  1.00  0.00    -0.091 C 
HETATM   28  C1  UNL     1       9.608  56.641  -5.266  1.00  0.00     0.042 C 
HETATM   29  C3  UNL     1       7.964  58.371  -4.439  1.00  0.00     0.042 C 
ENDBRANCH  25  26
ENDBRANCH  24  25
ENDBRANCH  22  24
ENDBRANCH   1  22
BRANCH  14  30
HETATM   30  O1  UNL     1      -0.844  50.928  -8.982  1.00  0.00    -0.392 OA
HETATM   31  H35 UNL     1      -1.341  50.092  -8.896  1.00  0.00     0.210 HD
ENDBRANCH  14  30
BRANCH  15  32
HETATM   32  O2  UNL     1      -2.307  49.384 -10.713  1.00  0.00    -0.390 OA
HETATM   33  H37 UNL     1      -1.648  48.813 -11.151  1.00  0.00     0.210 HD
ENDBRANCH  15  32
BRANCH  16  34
HETATM   34  O3  UNL     1      -4.317  51.223 -11.456  1.00  0.00    -0.393 OA
HETATM   35  H39 UNL     1      -4.406  50.265 -11.295  1.00  0.00     0.210 HD
ENDBRANCH  16  34
TORSDOF 7
ENDMDL
