MODEL 1
REMARK minimizedAffinity -9.7270937
REMARK  13 active torsions:
REMARK  status: ('A' for Active; 'I' for Inactive)
REMARK    1  A    between atoms: C2_2  and  C3_3 
REMARK    2  A    between atoms: C3_3  and  O1_5 
REMARK    3  A    between atoms: C3_3  and  C5_6 
REMARK    4  A    between atoms: C5_6  and  C6_7 
REMARK    5  A    between atoms: C6_7  and  C7_8 
REMARK    6  A    between atoms: C13_14  and  C15_16 
REMARK    7  A    between atoms: C15_16  and  O2_17 
REMARK    8  A    between atoms: O2_17  and  C16_18 
REMARK    9  A    between atoms: C17_20  and  C18_21 
REMARK   10  A    between atoms: C18_21  and  O4_22 
REMARK   11  A    between atoms: C19_23  and  O5_24 
REMARK   12  A    between atoms: C20_25  and  O6_26 
REMARK   13  A    between atoms: C21_27  and  O7_28 
ROOT
HETATM    1  C7  UNL     1       0.124  51.255 -19.636  1.00  0.00     0.022 C 
HETATM    2  C8  UNL     1       0.606  52.567 -20.243  1.00  0.00    -0.084 C 
HETATM    3  C9  UNL     1       0.727  53.743 -19.605  1.00  0.00     0.014 C 
HETATM    4  C10 UNL     1       0.898  52.451 -21.722  1.00  0.00     0.034 C 
HETATM    5  C11 UNL     1      -0.303  51.904 -22.508  1.00  0.00     0.010 C 
HETATM    6  C12 UNL     1      -1.541  51.688 -21.612  1.00  0.00     0.005 C 
HETATM    7  C13 UNL     1      -2.883  51.418 -22.385  1.00  0.00    -0.018 C 
HETATM    8  C14 UNL     1      -3.218  52.651 -23.278  1.00  0.00     0.018 C 
HETATM    9  C22 UNL     1      -4.040  51.319 -21.354  1.00  0.00     0.012 C 
HETATM   10  C23 UNL     1      -3.761  50.382 -20.187  1.00  0.00     0.002 C 
HETATM   11  C24 UNL     1      -2.461  50.740 -19.463  1.00  0.00     0.010 C 
HETATM   12  C25 UNL     1      -1.208  50.744 -20.381  1.00  0.00    -0.032 C 
HETATM   13  C26 UNL     1      -0.903  49.277 -20.781  1.00  0.00     0.016 C 
ENDROOT
BRANCH   7  14
HETATM   14  C15 UNL     1      -2.838  50.189 -23.325  1.00  0.00     0.180 C 
BRANCH  14  15
HETATM   15  O2  UNL     1      -1.688  50.277 -24.178  1.00  0.00    -0.358 OA
BRANCH  15  16
HETATM   16  C16 UNL     1      -1.852  51.231 -25.232  1.00  0.00     0.291 C 
HETATM   17  O3  UNL     1      -0.654  51.972 -25.488  1.00  0.00    -0.348 OA
HETATM   18  C17 UNL     1       0.227  51.317 -26.415  1.00  0.00     0.179 C 
HETATM   19  C19 UNL     1      -0.409  51.251 -27.829  1.00  0.00     0.180 C 
HETATM   20  C20 UNL     1      -1.948  51.210 -27.752  1.00  0.00     0.183 C 
HETATM   21  C21 UNL     1      -2.371  50.472 -26.477  1.00  0.00     0.204 C 
BRANCH  18  22
HETATM   22  C18 UNL     1       1.576  52.040 -26.393  1.00  0.00     0.198 C 
BRANCH  22  23
HETATM   23  O4  UNL     1       2.655  51.149 -26.649  1.00  0.00    -0.398 OA
HETATM   24  H29 UNL     1       2.592  50.938 -27.604  1.00  0.00     0.209 HD
ENDBRANCH  22  23
ENDBRANCH  18  22
BRANCH  19  25
HETATM   25  O5  UNL     1      -0.005  52.361 -28.651  1.00  0.00    -0.390 OA
HETATM   26  H31 UNL     1      -0.821  52.870 -28.850  1.00  0.00     0.210 HD
ENDBRANCH  19  25
BRANCH  20  27
HETATM   27  O6  UNL     1      -2.448  52.565 -27.800  1.00  0.00    -0.390 OA
HETATM   28  H33 UNL     1      -2.133  53.033 -27.004  1.00  0.00     0.210 HD
ENDBRANCH  20  27
BRANCH  21  29
HETATM   29  O7  UNL     1      -3.794  50.299 -26.417  1.00  0.00    -0.388 OA
HETATM   30  H35 UNL     1      -3.985  49.857 -25.570  1.00  0.00     0.210 HD
ENDBRANCH  21  29
ENDBRANCH  15  16
ENDBRANCH  14  15
ENDBRANCH   7  14
BRANCH   1  31
HETATM   31  C6  UNL     1       0.047  51.207 -18.089  1.00  0.00     0.013 C 
BRANCH  31  32
HETATM   32  C5  UNL     1       0.611  52.463 -17.393  1.00  0.00     0.042 C 
BRANCH  32  33
HETATM   33  C3  UNL     1       1.544  52.157 -16.195  1.00  0.00     0.071 C 
HETATM   34  C4  UNL     1       1.493  50.681 -15.768  1.00  0.00     0.050 C 
BRANCH  33  35
HETATM   35  C2  UNL     1       2.935  52.653 -16.521  1.00  0.00    -0.000 C 
HETATM   36  C1  UNL     1       4.099  52.273 -15.977  1.00  0.00     0.010 C 
ENDBRANCH  33  35
BRANCH  33  37
HETATM   37  O1  UNL     1       1.127  52.960 -15.081  1.00  0.00    -0.386 OA
HETATM   38  H7  UNL     1       0.349  52.538 -14.677  1.00  0.00     0.211 HD
ENDBRANCH  33  37
ENDBRANCH  32  33
ENDBRANCH  31  32
ENDBRANCH   1  31
TORSDOF 13
ENDMDL
