MODEL 1
REMARK minimizedAffinity -7.55179834
REMARK CNNscore 0.520012617
REMARK CNNaffinity 6.81884384
REMARK  10 active torsions:
REMARK  status: ('A' for Active; 'I' for Inactive)
REMARK    1  A    between atoms: C3_3  and  O1_4 
REMARK    2  A    between atoms: N1_14  and  O2_16 
REMARK    3  A    between atoms: O2_16  and  C13_17 
REMARK    4  A    between atoms: C13_17  and  C14_18 
REMARK       I    between atoms: C14_18  and  N2_20 
REMARK    5  A    between atoms: N2_20  and  C15_21 
REMARK    6  A    between atoms: C15_21  and  C16_22 
REMARK       I    between atoms: C16_22  and  N3_24 
REMARK    7  A    between atoms: N3_24  and  C17_25 
REMARK    8  A    between atoms: C17_25  and  C18_26 
REMARK    9  A    between atoms: C17_25  and  C19_29 
REMARK   10  A    between atoms: C18_26  and  O6_28 
ROOT
HETATM    1  C1  UNL     1     -16.504  -5.308  30.751  1.00  0.00     0.015 C 
HETATM    2  C2  UNL     1     -15.404  -5.539  31.172  1.00  0.00    -0.078 C 
HETATM    3  C3  UNL     1     -14.062  -5.776  31.750  1.00  0.00     0.128 C 
HETATM    4  C4  UNL     1     -13.036  -4.831  31.127  1.00  0.00     0.052 C 
HETATM    5  C5  UNL     1     -12.664  -5.522  29.823  1.00  0.00     0.010 C 
HETATM    6  C6  UNL     1     -12.617  -7.030  30.160  1.00  0.00     0.002 C 
HETATM    7  C7  UNL     1     -13.051  -7.895  28.963  1.00  0.00    -0.004 C 
HETATM    8  C8  UNL     1     -12.434  -9.310  29.013  1.00  0.00     0.010 C 
HETATM    9  C9  UNL     1     -13.148 -10.332  28.113  1.00  0.00     0.035 C 
HETATM   10  C10 UNL     1     -13.929  -9.669  27.008  1.00  0.00    -0.069 C 
HETATM   11  C11 UNL     1     -13.644  -9.924  25.717  1.00  0.00     0.030 C 
HETATM   12  C12 UNL     1     -14.394  -9.262  24.610  1.00  0.00     0.032 C 
HETATM   13  N1  UNL     1     -14.367  -9.614  23.362  1.00  0.00    -0.271 N 
ATOM     14  H1  UNL     1     -14.939  -9.181  22.637  1.00  0.00     0.194 HD
HETATM   15  C22 UNL     1     -15.303  -8.095  24.956  1.00  0.00     0.060 C 
HETATM   16  C23 UNL     1     -15.056  -7.549  26.358  1.00  0.00     0.020 C 
HETATM   17  C24 UNL     1     -14.990  -8.657  27.449  1.00  0.00    -0.016 C 
HETATM   18  C25 UNL     1     -16.368  -9.357  27.529  1.00  0.00     0.020 C 
HETATM   19  C26 UNL     1     -14.586  -7.970  28.821  1.00  0.00     0.002 C 
HETATM   20  C27 UNL     1     -15.225  -8.587  30.084  1.00  0.00     0.007 C 
HETATM   21  C28 UNL     1     -14.500  -8.332  31.414  1.00  0.00     0.014 C 
HETATM   22  C29 UNL     1     -13.457  -7.197  31.469  1.00  0.00     0.003 C 
HETATM   23  C30 UNL     1     -12.472  -7.578  32.618  1.00  0.00     0.020 C 
ENDROOT
BRANCH   3  24
HETATM   24  O1  UNL     1     -14.154  -5.514  33.148  1.00  0.00    -0.377 OA
HETATM   25  H2  UNL     1     -14.596  -4.652  33.241  1.00  0.00     0.211 HD
ENDBRANCH   3  24
BRANCH  13  26
HETATM   26  O2  UNL     1     -13.459 -10.659  23.121  1.00  0.00    -0.271 OA
BRANCH  26  27
HETATM   27  C13 UNL     1     -13.425 -10.921  21.723  1.00  0.00     0.303 C 
BRANCH  27  28
HETATM   28  C14 UNL     1     -11.992 -10.970  21.191  1.00  0.00     0.244 C 
HETATM   29  O3  UNL     1     -11.640 -11.621  20.210  1.00  0.00    -0.271 OA
HETATM   30  N2  UNL     1     -11.090 -10.262  21.956  1.00  0.00    -0.350 N 
HETATM   31  H16 UNL     1     -11.411  -9.581  22.643  1.00  0.00     0.163 HD
BRANCH  30  32
HETATM   32  C15 UNL     1      -9.669 -10.284  21.667  1.00  0.00     0.225 C 
BRANCH  32  33
HETATM   33  C16 UNL     1      -9.044 -11.515  22.321  1.00  0.00     0.236 C 
HETATM   34  O4  UNL     1      -7.858 -11.807  22.162  1.00  0.00    -0.272 OA
HETATM   35  N3  UNL     1      -9.926 -12.278  23.062  1.00  0.00    -0.345 N 
HETATM   36  H19 UNL     1     -10.715 -11.772  23.446  1.00  0.00     0.163 HD
BRANCH  35  37
HETATM   37  C17 UNL     1      -9.422 -13.381  23.890  1.00  0.00     0.185 C 
BRANCH  37  38
HETATM   38  C18 UNL     1      -8.356 -14.202  23.139  1.00  0.00     0.163 C 
HETATM   39  O5  UNL     1      -8.515 -14.798  22.082  1.00  0.00    -0.648 OA
BRANCH  38  40
HETATM   40  O6  UNL     1      -7.175 -14.292  23.792  1.00  0.00    -0.775 OA
HETATM   41  H21 UNL     1      -6.620 -14.833  23.189  1.00  0.00     0.167 HD
ENDBRANCH  38  40
ENDBRANCH  37  38
BRANCH  37  42
HETATM   42  C19 UNL     1      -8.858 -12.875  25.237  1.00  0.00     0.010 C 
HETATM   43  C20 UNL     1      -8.145 -11.520  25.131  1.00  0.00     0.012 C 
HETATM   44  C21 UNL     1      -9.961 -12.797  26.304  1.00  0.00     0.012 C 
ENDBRANCH  37  42
ENDBRANCH  35  37
ENDBRANCH  32  33
ENDBRANCH  30  32
ENDBRANCH  27  28
ENDBRANCH  26  27
ENDBRANCH  13  26
TORSDOF 10
ENDMDL
