MODEL 1
REMARK minimizedAffinity -7.97186232
REMARK CNNscore 0.443318605
REMARK CNNaffinity 7.03495169
REMARK  13 active torsions:
REMARK  status: ('A' for Active; 'I' for Inactive)
REMARK    1  A    between atoms: O1_2  and  C2_3 
REMARK    2  A    between atoms: C8_9  and  O2_10 
REMARK    3  A    between atoms: O2_10  and  C9_11 
REMARK    4  A    between atoms: C10_13  and  C11_14 
REMARK    5  A    between atoms: C11_14  and  O4_15 
REMARK    6  A    between atoms: C12_16  and  O5_17 
REMARK    7  A    between atoms: C13_18  and  O6_19 
REMARK    8  A    between atoms: C14_20  and  O7_21 
REMARK    9  A    between atoms: C24_31  and  C25_32 
REMARK   10  A    between atoms: C25_32  and  C27_34 
REMARK   11  A    between atoms: C27_34  and  C28_35 
REMARK   12  A    between atoms: C29_36  and  C30_37 
REMARK   13  A    between atoms: C30_37  and  O8_40 
ROOT
HETATM    1  C2  UNL     1      -1.235  52.918  -7.625  1.00  0.00     0.149 C 
HETATM    2  C3  UNL     1      -2.204  52.491  -8.689  1.00  0.00     0.009 C 
HETATM    3  C4  UNL     1      -1.935  52.542 -10.009  1.00  0.00    -0.066 C 
HETATM    4  C5  UNL     1      -0.587  53.131 -10.424  1.00  0.00     0.024 C 
HETATM    5  C6  UNL     1      -0.461  53.330 -11.948  1.00  0.00     0.012 C 
HETATM    6  C7  UNL     1      -0.891  52.130 -12.789  1.00  0.00     0.034 C 
HETATM    7  C8  UNL     1      -1.901  51.186 -12.126  1.00  0.00     0.136 C 
HETATM    8  C15 UNL     1      -2.826  51.907 -11.092  1.00  0.00     0.002 C 
HETATM    9  C16 UNL     1      -3.798  50.841 -10.511  1.00  0.00     0.022 C 
HETATM   10  C17 UNL     1      -3.720  52.980 -11.754  1.00  0.00     0.022 C 
HETATM   11  C18 UNL     1      -0.238  54.436  -9.586  1.00  0.00    -0.030 C 
HETATM   12  C19 UNL     1      -1.242  55.567  -9.968  1.00  0.00     0.016 C 
HETATM   13  C20 UNL     1       1.193  54.941  -9.975  1.00  0.00     0.011 C 
HETATM   14  C21 UNL     1       1.923  55.900  -9.008  1.00  0.00     0.011 C 
HETATM   15  C22 UNL     1       1.582  55.733  -7.515  1.00  0.00    -0.032 C 
HETATM   16  C23 UNL     1       0.641  56.912  -7.104  1.00  0.00     0.016 C 
HETATM   17  C24 UNL     1       2.782  55.730  -6.501  1.00  0.00    -0.002 C 
HETATM   18  C33 UNL     1       2.173  55.002  -5.265  1.00  0.00     0.006 C 
HETATM   19  C34 UNL     1       0.901  54.275  -5.741  1.00  0.00     0.011 C 
HETATM   20  C35 UNL     1       0.990  54.291  -7.276  1.00  0.00    -0.029 C 
HETATM   21  C36 UNL     1       1.983  53.148  -7.691  1.00  0.00     0.016 C 
HETATM   22  C37 UNL     1      -0.375  54.156  -8.024  1.00  0.00     0.036 C 
ENDROOT
BRANCH   7  23
HETATM   23  O2  UNL     1      -2.711  50.522 -13.112  1.00  0.00    -0.352 OA
BRANCH  23  24
HETATM   24  C9  UNL     1      -1.967  49.840 -14.135  1.00  0.00     0.292 C 
HETATM   25  O3  UNL     1      -1.501  50.769 -15.114  1.00  0.00    -0.348 OA
HETATM   26  C10 UNL     1      -0.784  50.137 -16.188  1.00  0.00     0.179 C 
HETATM   27  C12 UNL     1      -1.663  49.103 -16.922  1.00  0.00     0.180 C 
HETATM   28  C13 UNL     1      -2.236  48.097 -15.918  1.00  0.00     0.183 C 
HETATM   29  C14 UNL     1      -2.948  48.845 -14.791  1.00  0.00     0.204 C 
BRANCH  26  30
HETATM   30  C11 UNL     1      -0.284  51.228 -17.151  1.00  0.00     0.198 C 
BRANCH  30  31
HETATM   31  O4  UNL     1      -1.092  51.292 -18.326  1.00  0.00    -0.398 OA
HETATM   32  H16 UNL     1      -0.654  51.908 -18.940  1.00  0.00     0.209 HD
ENDBRANCH  30  31
ENDBRANCH  26  30
BRANCH  27  33
HETATM   33  O5  UNL     1      -0.891  48.386 -17.898  1.00  0.00    -0.390 OA
HETATM   34  H18 UNL     1      -1.529  47.954 -18.498  1.00  0.00     0.210 HD
ENDBRANCH  27  33
BRANCH  28  35
HETATM   35  O6  UNL     1      -1.154  47.296 -15.403  1.00  0.00    -0.390 OA
HETATM   36  H20 UNL     1      -0.637  47.012 -16.184  1.00  0.00     0.210 HD
ENDBRANCH  28  35
BRANCH  29  37
HETATM   37  O7  UNL     1      -3.496  47.927 -13.833  1.00  0.00    -0.388 OA
HETATM   38  H22 UNL     1      -3.699  48.468 -13.048  1.00  0.00     0.210 HD
ENDBRANCH  29  37
ENDBRANCH  23  24
ENDBRANCH   7  23
BRANCH   1  39
HETATM   39  O1  UNL     1      -0.424  51.784  -7.310  1.00  0.00    -0.386 OA
HETATM   40  C1  UNL     1      -0.871  51.051  -6.176  1.00  0.00     0.202 C 
ENDBRANCH   1  39
BRANCH  17  41
HETATM   41  C25 UNL     1       3.475  57.075  -6.127  1.00  0.00    -0.010 C 
HETATM   42  C26 UNL     1       2.608  58.290  -6.480  1.00  0.00     0.010 C 
BRANCH  41  43
HETATM   43  C27 UNL     1       4.883  57.231  -6.761  1.00  0.00     0.031 C 
BRANCH  43  44
HETATM   44  C28 UNL     1       5.207  56.252  -7.860  1.00  0.00    -0.027 C 
HETATM   45  C29 UNL     1       5.859  55.093  -7.658  1.00  0.00     0.006 C 
BRANCH  45  46
HETATM   46  C30 UNL     1       6.226  54.050  -8.693  1.00  0.00     0.068 C 
HETATM   47  C31 UNL     1       6.635  52.750  -7.993  1.00  0.00     0.050 C 
HETATM   48  C32 UNL     1       5.148  53.755  -9.742  1.00  0.00     0.050 C 
BRANCH  46  49
HETATM   49  O8  UNL     1       7.359  54.547  -9.410  1.00  0.00    -0.387 OA
HETATM   50  H54 UNL     1       8.040  54.789  -8.760  1.00  0.00     0.211 HD
ENDBRANCH  46  49
ENDBRANCH  45  46
ENDBRANCH  43  44
ENDBRANCH  41  43
ENDBRANCH  17  41
TORSDOF 13
ENDMDL
