MODEL 1
REMARK minimizedAffinity -9.5600338
REMARK  6 active torsions:
REMARK  status: ('A' for Active; 'I' for Inactive)
REMARK    1  A    between atoms: C2_2  and  C30_31 
REMARK    2  A    between atoms: C3_3  and  C4_4 
REMARK    3  A    between atoms: C4_4  and  C5_5 
REMARK    4  A    between atoms: C5_5  and  C6_6 
REMARK    5  A    between atoms: C6_6  and  C8_8 
REMARK    6  A    between atoms: C30_31  and  O2_32 
ROOT
HETATM    1  C8  UNL     1      -0.568  49.626 -18.074  1.00  0.00    -0.002 C 
HETATM    2  C9  UNL     1      -1.865  48.782 -17.835  1.00  0.00     0.007 C 
HETATM    3  C10 UNL     1      -2.700  48.832 -19.134  1.00  0.00     0.015 C 
HETATM    4  C11 UNL     1      -1.725  49.378 -20.187  1.00  0.00    -0.013 C 
HETATM    5  C12 UNL     1      -0.831  48.162 -20.632  1.00  0.00     0.021 C 
HETATM    6  C13 UNL     1      -2.284  49.969 -21.489  1.00  0.00    -0.070 C 
HETATM    7  C14 UNL     1      -3.158  49.263 -22.240  1.00  0.00    -0.022 C 
HETATM    8  C15 UNL     1      -3.389  49.505 -23.708  1.00  0.00     0.034 C 
HETATM    9  C16 UNL     1      -2.227  50.334 -24.296  1.00  0.00     0.013 C 
HETATM   10  C17 UNL     1      -2.207  50.487 -25.850  1.00  0.00     0.018 C 
HETATM   11  C18 UNL     1      -3.398  51.250 -26.439  1.00  0.00     0.023 C 
HETATM   12  C19 UNL     1      -2.145  49.096 -26.516  1.00  0.00     0.023 C 
HETATM   13  C20 UNL     1      -0.921  51.241 -26.245  1.00  0.00     0.135 C 
HETATM   14  O1  UNL     1      -0.526  51.285 -27.413  1.00  0.00    -0.297 OA
HETATM   15  C21 UNL     1      -0.134  51.925 -25.146  1.00  0.00     0.080 C 
HETATM   16  C22 UNL     1      -1.092  52.630 -24.199  1.00  0.00     0.017 C 
HETATM   17  C23 UNL     1      -2.058  51.656 -23.475  1.00  0.00    -0.031 C 
HETATM   18  C24 UNL     1      -3.400  52.435 -23.293  1.00  0.00     0.016 C 
HETATM   19  C25 UNL     1      -1.599  51.255 -22.009  1.00  0.00     0.024 C 
HETATM   20  C26 UNL     1      -0.089  51.165 -21.718  1.00  0.00     0.010 C 
HETATM   21  C27 UNL     1       0.230  50.986 -20.205  1.00  0.00     0.011 C 
HETATM   22  C28 UNL     1      -0.949  50.457 -19.345  1.00  0.00    -0.029 C 
HETATM   23  C29 UNL     1      -1.853  51.643 -18.867  1.00  0.00     0.016 C 
ENDROOT
BRANCH   1  24
HETATM   24  C6  UNL     1      -0.082  50.345 -16.776  1.00  0.00    -0.014 C 
HETATM   25  C7  UNL     1      -1.247  50.705 -15.850  1.00  0.00     0.010 C 
BRANCH  24  26
HETATM   26  C5  UNL     1       0.721  51.621 -17.155  1.00  0.00     0.008 C 
BRANCH  26  27
HETATM   27  C4  UNL     1       1.352  52.402 -15.995  1.00  0.00     0.028 C 
BRANCH  27  28
HETATM   28  C3  UNL     1       1.964  51.521 -14.941  1.00  0.00    -0.022 C 
HETATM   29  C2  UNL     1       3.277  51.325 -14.697  1.00  0.00    -0.064 C 
HETATM   30  C1  UNL     1       4.395  51.954 -15.485  1.00  0.00     0.045 C 
BRANCH  29  31
HETATM   31  C30 UNL     1       3.726  50.431 -13.570  1.00  0.00     0.197 C 
BRANCH  31  32
HETATM   32  O2  UNL     1       4.851  49.682 -14.001  1.00  0.00    -0.397 OA
HETATM   33  H48 UNL     1       5.092  49.095 -13.265  1.00  0.00     0.209 HD
ENDBRANCH  31  32
ENDBRANCH  29  31
ENDBRANCH  27  28
ENDBRANCH  26  27
ENDBRANCH  24  26
ENDBRANCH   1  24
TORSDOF 6
ENDMDL
