MODEL 1
REMARK minimizedAffinity -9.30922604
REMARK CNNscore 0.717495203
REMARK CNNaffinity 7.70474672
REMARK  11 active torsions:
REMARK  status: ('A' for Active; 'I' for Inactive)
REMARK    1  A    between atoms: C2_2  and  O2_4 
REMARK    2  A    between atoms: O2_4  and  C3_5 
REMARK    3  A    between atoms: C4_6  and  O3_7 
REMARK    4  A    between atoms: O3_7  and  C5_8 
REMARK    5  A    between atoms: C15_18  and  C16_19 
REMARK    6  A    between atoms: C20_23  and  C21_24 
REMARK    7  A    between atoms: C21_24  and  O4_27 
REMARK    8  A    between atoms: C24_29  and  O6_30 
REMARK    9  A    between atoms: C30_36  and  O7_37 
REMARK   10  A    between atoms: C36_44  and  O9_45 
REMARK   11  A    between atoms: C37_46  and  O10_47 
ROOT
HETATM    1  C5  UNL     1      -9.684   7.031  13.702  1.00  0.00     0.133 C 
HETATM    2  C6  UNL     1      -8.999   6.186  12.621  1.00  0.00     0.034 C 
HETATM    3  C7  UNL     1      -7.646   5.618  13.024  1.00  0.00     0.013 C 
HETATM    4  C8  UNL     1      -6.745   6.685  13.615  1.00  0.00    -0.025 A 
HETATM    5  C9  UNL     1      -5.849   7.405  12.642  1.00  0.00     0.021 A 
HETATM    6  C10 UNL     1      -5.210   6.452  13.637  1.00  0.00    -0.027 A 
HETATM    7  C11 UNL     1      -4.559   5.223  13.017  1.00  0.00     0.011 C 
HETATM    8  C12 UNL     1      -3.077   5.454  12.651  1.00  0.00     0.011 C 
HETATM    9  C13 UNL     1      -2.384   6.609  13.417  1.00  0.00    -0.028 C 
HETATM   10  C14 UNL     1      -2.596   7.920  12.618  1.00  0.00     0.016 C 
HETATM   11  C15 UNL     1      -0.843   6.462  13.689  1.00  0.00     0.057 C 
HETATM   12  C24 UNL     1      -0.611   7.383  14.939  1.00  0.00     0.126 C 
HETATM   13  C25 UNL     1      -2.015   7.708  15.524  1.00  0.00     0.042 C 
HETATM   14  C26 UNL     1      -2.953   6.663  14.890  1.00  0.00    -0.029 C 
HETATM   15  C27 UNL     1      -2.701   5.337  15.714  1.00  0.00     0.016 C 
HETATM   16  C28 UNL     1      -4.512   6.887  14.935  1.00  0.00     0.006 C 
HETATM   17  C29 UNL     1      -5.022   8.238  15.444  1.00  0.00     0.038 C 
HETATM   18  C30 UNL     1      -6.511   8.109  15.814  1.00  0.00     0.124 C 
HETATM   19  C31 UNL     1      -7.427   7.647  14.640  1.00  0.00     0.034 C 
HETATM   20  C32 UNL     1      -8.878   7.177  15.032  1.00  0.00    -0.015 C 
HETATM   21  C33 UNL     1      -9.583   8.271  15.877  1.00  0.00     0.018 C 
HETATM   22  C34 UNL     1      -8.899   5.885  15.885  1.00  0.00     0.018 C 
ENDROOT
BRANCH   1  23
HETATM   23  O3  UNL     1     -10.985   6.481  13.948  1.00  0.00    -0.352 OA
BRANCH  23  24
HETATM   24  C4  UNL     1     -12.047   7.302  13.441  1.00  0.00     0.292 C 
HETATM   25  C3  UNL     1     -12.986   7.636  14.613  1.00  0.00     0.218 C 
HETATM   26  C37 UNL     1     -14.031   8.660  14.158  1.00  0.00     0.183 C 
HETATM   27  C36 UNL     1     -13.365   9.863  13.485  1.00  0.00     0.173 C 
HETATM   28  C35 UNL     1     -12.429   9.393  12.380  1.00  0.00     0.205 C 
HETATM   29  O8  UNL     1     -11.464   8.471  12.872  1.00  0.00    -0.356 OA
BRANCH  25  30
HETATM   30  O2  UNL     1     -13.655   6.419  15.026  1.00  0.00    -0.309 OA
BRANCH  30  31
HETATM   31  C2  UNL     1     -14.656   5.988  14.218  1.00  0.00     0.255 C 
HETATM   32  C1  UNL     1     -15.204   4.681  14.710  1.00  0.00     0.126 C 
HETATM   33  O1  UNL     1     -15.036   6.569  13.207  1.00  0.00    -0.266 OA
ENDBRANCH  30  31
ENDBRANCH  25  30
BRANCH  26  34
HETATM   34  O10 UNL     1     -14.869   9.152  15.219  1.00  0.00    -0.390 OA
HETATM   35  H60 UNL     1     -14.482   8.881  16.079  1.00  0.00     0.210 HD
ENDBRANCH  26  34
BRANCH  27  36
HETATM   36  O9  UNL     1     -14.366  10.725  12.942  1.00  0.00    -0.391 OA
HETATM   37  H58 UNL     1     -15.057  10.782  13.636  1.00  0.00     0.210 HD
ENDBRANCH  27  36
ENDBRANCH  23  24
ENDBRANCH   1  23
BRANCH  18  38
HETATM   38  O7  UNL     1      -6.629   7.253  16.951  1.00  0.00    -0.395 OA
HETATM   39  H47 UNL     1      -6.086   7.634  17.665  1.00  0.00     0.210 HD
ENDBRANCH  18  38
BRANCH  11  40
HETATM   40  C16 UNL     1       0.224   6.521  12.555  1.00  0.00     0.065 C 
HETATM   41  C17 UNL     1       0.271   5.184  11.785  1.00  0.00     0.046 C 
HETATM   42  C18 UNL     1       0.188   7.677  11.549  1.00  0.00     0.041 C 
HETATM   43  C19 UNL     1       1.597   8.225  11.484  1.00  0.00     0.038 C 
HETATM   44  C20 UNL     1       2.428   7.275  12.321  1.00  0.00     0.156 C 
HETATM   45  O5  UNL     1       1.504   6.654  13.231  1.00  0.00    -0.372 OA
BRANCH  44  46
HETATM   46  C21 UNL     1       3.612   7.894  13.103  1.00  0.00     0.076 C 
HETATM   47  C22 UNL     1       3.973   9.279  12.563  1.00  0.00     0.048 C 
HETATM   48  C23 UNL     1       3.391   7.948  14.621  1.00  0.00     0.048 C 
BRANCH  46  49
HETATM   49  O4  UNL     1       4.753   7.046  12.882  1.00  0.00    -0.388 OA
HETATM   50  H35 UNL     1       4.513   6.187  13.275  1.00  0.00     0.210 HD
ENDBRANCH  46  49
ENDBRANCH  44  46
ENDBRANCH  11  40
BRANCH  12  51
HETATM   51  O6  UNL     1       0.058   8.602  14.656  1.00  0.00    -0.395 OA
HETATM   52  H37 UNL     1       0.213   9.047  15.509  1.00  0.00     0.210 HD
ENDBRANCH  12  51
TORSDOF 11
ENDMDL
