MODEL 1
REMARK minimizedAffinity -9.11061764
REMARK  5 active torsions:
REMARK  status: ('A' for Active; 'I' for Inactive)
REMARK    1  A    between atoms: O1_2  and  C2_3 
REMARK    2  A    between atoms: C6_11  and  N3_12 
REMARK    3  A    between atoms: C9_15  and  O2_16 
REMARK    4  A    between atoms: O2_16  and  C10_17 
REMARK    5  A    between atoms: C21_32  and  O3_33 
ROOT
HETATM    1  N3  UNL     1      -1.162  51.080 -21.353  1.00  0.00    -0.266 NA
HETATM    2  C7  UNL     1      -2.576  51.055 -20.888  1.00  0.00     0.099 C 
HETATM    3  C8  UNL     1      -3.391  51.688 -22.017  1.00  0.00     0.048 C 
HETATM    4  C9  UNL     1      -2.586  51.283 -23.257  1.00  0.00     0.145 C 
HETATM    5  C18 UNL     1      -1.155  51.539 -22.770  1.00  0.00     0.129 C 
ENDROOT
BRANCH   1   6
HETATM    6  C6  UNL     1      -0.376  51.913 -20.523  1.00  0.00     0.096 A 
HETATM    7  N2  UNL     1       0.028  53.106 -20.998  1.00  0.00    -0.342 N 
HETATM    8  C5  UNL     1       0.756  53.860 -20.162  1.00  0.00     0.182 A 
ATOM      9  H2  UNL     1      -0.206  53.417 -21.940  1.00  0.00     0.167 HD
HETATM   10  N1  UNL     1       1.107  53.550 -18.907  1.00  0.00    -0.351 N 
HETATM   11  C4  UNL     1       0.688  52.365 -18.447  1.00  0.00     0.049 A 
ATOM     12  H1  UNL     1       1.663  54.183 -18.333  1.00  0.00     0.166 HD
HETATM   13  C3  UNL     1       1.018  52.003 -17.147  1.00  0.00     0.070 A 
HETATM   14  C19 UNL     1      -0.070  51.479 -19.220  1.00  0.00     0.032 A 
HETATM   15  C2  UNL     1       0.620  50.780 -16.592  1.00  0.00     0.103 A 
HETATM   16  C21 UNL     1      -0.128  49.881 -17.370  1.00  0.00     0.102 A 
HETATM   17  C20 UNL     1      -0.477  50.237 -18.672  1.00  0.00     0.056 A 
BRANCH  15  18
HETATM   18  O1  UNL     1       0.923  50.370 -15.318  1.00  0.00    -0.353 OA
HETATM   19  C1  UNL     1       0.680  51.282 -14.257  1.00  0.00     0.210 C 
ENDBRANCH  15  18
BRANCH  16  20
HETATM   20  O3  UNL     1      -0.505  48.707 -16.767  1.00  0.00    -0.353 OA
HETATM   21  C22 UNL     1      -1.899  48.555 -16.497  1.00  0.00     0.210 C 
ENDBRANCH  16  20
ENDBRANCH   1   6
BRANCH   4  22
HETATM   22  O2  UNL     1      -2.903  52.098 -24.386  1.00  0.00    -0.328 OA
BRANCH  22  23
HETATM   23  C10 UNL     1      -1.962  51.967 -25.388  1.00  0.00     0.159 A 
HETATM   24  C11 UNL     1      -2.403  51.877 -26.697  1.00  0.00     0.144 A 
HETATM   25  N4  UNL     1      -1.558  51.796 -27.750  1.00  0.00    -0.360 N 
HETATM   26  C12 UNL     1      -0.250  51.772 -27.447  1.00  0.00     0.059 A 
ATOM     27  H4  UNL     1      -1.892  51.755 -28.713  1.00  0.00     0.165 HD
HETATM   28  C13 UNL     1       0.687  51.716 -28.474  1.00  0.00     0.032 A 
HETATM   29  C17 UNL     1       0.201  51.799 -26.097  1.00  0.00     0.061 A 
HETATM   30  C14 UNL     1       2.057  51.661 -28.202  1.00  0.00     0.002 A 
HETATM   31  C15 UNL     1       2.505  51.650 -26.877  1.00  0.00     0.002 A 
HETATM   32  C16 UNL     1       1.576  51.726 -25.837  1.00  0.00     0.032 A 
HETATM   33  N5  UNL     1      -0.661  51.896 -25.064  1.00  0.00    -0.334 N 
ATOM     34  H5  UNL     1      -0.343  51.915 -24.095  1.00  0.00     0.168 HD
ENDBRANCH  22  23
ENDBRANCH   4  22
TORSDOF 5
ENDMDL
