MODEL 1
REMARK minimizedAffinity -9.5194912
REMARK  10 active torsions:
REMARK  status: ('A' for Active; 'I' for Inactive)
REMARK    1  A    between atoms: C2_2  and  C3_3 
REMARK    2  A    between atoms: C4_4  and  O1_5 
REMARK    3  A    between atoms: C12_13  and  C13_14 
REMARK    4  A    between atoms: C13_14  and  C15_16 
REMARK    5  A    between atoms: C15_16  and  C16_17 
REMARK    6  A    between atoms: C16_17  and  C17_18 
REMARK    7  A    between atoms: C26_27  and  C27_28 
REMARK    8  A    between atoms: C27_28  and  C28_29 
REMARK    9  A    between atoms: C28_29  and  C29_30 
REMARK   10  A    between atoms: C29_30  and  O3_32 
ROOT
HETATM    1  C3  UNL     1      -1.018  51.125 -18.970  1.00  0.00     0.045 C 
HETATM    2  C4  UNL     1      -2.537  50.826 -18.984  1.00  0.00     0.127 C 
HETATM    3  C5  UNL     1      -3.192  51.361 -20.250  1.00  0.00     0.038 C 
HETATM    4  C6  UNL     1      -2.711  50.563 -21.465  1.00  0.00     0.006 C 
HETATM    5  C7  UNL     1      -1.173  50.638 -21.612  1.00  0.00    -0.027 A 
HETATM    6  C8  UNL     1      -0.640  51.134 -22.960  1.00  0.00     0.011 C 
HETATM    7  C9  UNL     1      -1.411  50.721 -24.228  1.00  0.00     0.011 C 
HETATM    8  C10 UNL     1      -2.805  50.131 -23.978  1.00  0.00    -0.032 C 
HETATM    9  C11 UNL     1      -2.640  48.603 -23.717  1.00  0.00     0.016 C 
HETATM   10  C12 UNL     1      -3.868  50.340 -25.109  1.00  0.00    -0.002 C 
HETATM   11  C21 UNL     1      -5.203  50.191 -24.332  1.00  0.00     0.006 C 
HETATM   12  C22 UNL     1      -4.908  50.403 -22.838  1.00  0.00     0.011 C 
HETATM   13  C23 UNL     1      -3.458  50.915 -22.781  1.00  0.00    -0.032 C 
HETATM   14  C24 UNL     1      -3.534  52.462 -22.975  1.00  0.00     0.016 C 
HETATM   15  C25 UNL     1      -0.393  49.514 -20.958  1.00  0.00     0.022 A 
HETATM   16  C26 UNL     1      -0.313  50.888 -20.327  1.00  0.00    -0.022 A 
ENDROOT
BRANCH  10  17
HETATM   17  C13 UNL     1      -3.817  49.474 -26.406  1.00  0.00    -0.014 C 
HETATM   18  C14 UNL     1      -2.790  48.337 -26.285  1.00  0.00     0.010 C 
BRANCH  17  19
HETATM   19  C15 UNL     1      -3.438  50.310 -27.663  1.00  0.00     0.008 C 
BRANCH  19  20
HETATM   20  C16 UNL     1      -2.610  51.566 -27.367  1.00  0.00     0.028 C 
BRANCH  20  21
HETATM   21  C17 UNL     1      -1.143  51.320 -27.601  1.00  0.00    -0.025 C 
HETATM   22  C18 UNL     1      -0.178  52.241 -27.787  1.00  0.00    -0.091 C 
HETATM   23  C19 UNL     1       1.245  51.821 -28.050  1.00  0.00     0.042 C 
HETATM   24  C20 UNL     1      -0.388  53.730 -27.745  1.00  0.00     0.042 C 
ENDBRANCH  20  21
ENDBRANCH  19  20
ENDBRANCH  17  19
ENDBRANCH  10  17
BRANCH  16  25
HETATM   25  C27 UNL     1       1.013  51.663 -20.442  1.00  0.00     0.021 C 
BRANCH  25  26
HETATM   26  C28 UNL     1       1.031  52.692 -21.573  1.00  0.00     0.111 C 
BRANCH  26  27
HETATM   27  C29 UNL     1       1.463  54.044 -21.074  1.00  0.00     0.139 C 
HETATM   28  O2  UNL     1       1.790  55.014 -21.735  1.00  0.00    -0.650 OA
BRANCH  27  29
HETATM   29  O3  UNL     1       1.462  54.105 -19.727  1.00  0.00    -0.776 OA
HETATM   30  H46 UNL     1       1.752  55.020 -19.531  1.00  0.00     0.167 HD
ENDBRANCH  27  29
ENDBRANCH  26  27
ENDBRANCH  25  26
ENDBRANCH  16  25
BRANCH   2  31
HETATM   31  O1  UNL     1      -3.182  51.468 -17.875  1.00  0.00    -0.395 OA
HETATM   32  H6  UNL     1      -2.731  51.164 -17.068  1.00  0.00     0.210 HD
ENDBRANCH   2  31
BRANCH   1  33
HETATM   33  C2  UNL     1      -0.373  50.359 -17.825  1.00  0.00    -0.029 C 
HETATM   34  C1  UNL     1       0.408  50.910 -16.887  1.00  0.00     0.007 C 
ENDBRANCH   1  33
TORSDOF 10
ENDMDL
