MODEL 1
REMARK minimizedAffinity -8.09796238
REMARK CNNscore 0.303859979
REMARK CNNaffinity 6.94071531
REMARK  11 active torsions:
REMARK  status: ('A' for Active; 'I' for Inactive)
REMARK    1  A    between atoms: C2_2  and  C4_4 
REMARK    2  A    between atoms: C4_4  and  C6_6 
REMARK    3  A    between atoms: C7_7  and  C8_8 
REMARK    4  A    between atoms: C8_8  and  C10_10 
REMARK    5  A    between atoms: C24_24  and  O1_25 
REMARK    6  A    between atoms: O1_25  and  C25_26 
REMARK    7  A    between atoms: C26_28  and  C27_29 
REMARK    8  A    between atoms: C27_29  and  O3_30 
REMARK    9  A    between atoms: C28_31  and  O4_32 
REMARK   10  A    between atoms: C29_33  and  O5_34 
REMARK   11  A    between atoms: C30_35  and  O6_36 
ROOT
HETATM    1  C10 UNL     1      -7.051   6.492  13.975  1.00  0.00     0.001 C 
HETATM    2  C11 UNL     1      -7.549   5.237  13.210  1.00  0.00     0.006 C 
HETATM    3  C12 UNL     1      -9.050   5.445  12.946  1.00  0.00     0.009 C 
HETATM    4  C13 UNL     1      -9.308   6.880  13.391  1.00  0.00     0.036 C 
HETATM    5  C14 UNL     1      -8.355   7.093  14.587  1.00  0.00    -0.033 C 
HETATM    6  C15 UNL     1      -8.787   6.368  15.875  1.00  0.00     0.016 C 
HETATM    7  C16 UNL     1      -8.291   8.612  14.841  1.00  0.00     0.010 C 
HETATM    8  C17 UNL     1      -9.682   9.196  15.138  1.00  0.00     0.010 C 
HETATM    9  C18 UNL     1     -10.742   8.858  14.066  1.00  0.00     0.039 C 
HETATM   10  C19 UNL     1     -10.751   7.356  13.600  1.00  0.00     0.123 C 
HETATM   11  C20 UNL     1     -11.667   6.471  14.411  1.00  0.00     0.014 C 
HETATM   12  C21 UNL     1     -12.943   6.891  14.434  1.00  0.00     0.014 C 
HETATM   13  C22 UNL     1     -13.140   8.220  13.737  1.00  0.00     0.124 C 
HETATM   14  C23 UNL     1     -14.590   8.688  13.670  1.00  0.00     0.078 C 
HETATM   15  C24 UNL     1     -14.749   9.992  12.859  1.00  0.00     0.128 C 
HETATM   16  C31 UNL     1     -13.439  10.783  12.678  1.00  0.00     0.033 C 
HETATM   17  C32 UNL     1     -12.534  10.735  13.907  1.00  0.00     0.015 C 
HETATM   18  C33 UNL     1     -12.225   9.294  14.420  1.00  0.00     0.001 C 
HETATM   19  C34 UNL     1     -12.470   9.338  15.956  1.00  0.00     0.019 C 
HETATM   20  O7  UNL     1     -12.703   8.046  12.360  1.00  0.00    -0.223 OA
HETATM   21  O8  UNL     1     -11.382   7.355  12.291  1.00  0.00    -0.224 OA
ENDROOT
BRANCH  15  22
HETATM   22  O1  UNL     1     -15.761  10.753  13.535  1.00  0.00    -0.353 OA
BRANCH  22  23
HETATM   23  C25 UNL     1     -15.921  12.087  13.038  1.00  0.00     0.292 C 
HETATM   24  O2  UNL     1     -16.009  13.000  14.127  1.00  0.00    -0.348 OA
HETATM   25  C26 UNL     1     -16.182  14.363  13.700  1.00  0.00     0.179 C 
HETATM   26  C28 UNL     1     -17.461  14.530  12.855  1.00  0.00     0.180 C 
HETATM   27  C29 UNL     1     -17.468  13.514  11.702  1.00  0.00     0.183 C 
HETATM   28  C30 UNL     1     -17.231  12.104  12.240  1.00  0.00     0.204 C 
BRANCH  25  29
HETATM   29  C27 UNL     1     -16.231  15.269  14.944  1.00  0.00     0.198 C 
BRANCH  29  30
HETATM   30  O3  UNL     1     -17.576  15.657  15.252  1.00  0.00    -0.398 OA
HETATM   31  H41 UNL     1     -18.088  14.844  15.403  1.00  0.00     0.209 HD
ENDBRANCH  29  30
ENDBRANCH  25  29
BRANCH  26  32
HETATM   32  O4  UNL     1     -17.550  15.872  12.357  1.00  0.00    -0.390 OA
HETATM   33  H43 UNL     1     -17.188  15.899  11.455  1.00  0.00     0.210 HD
ENDBRANCH  26  32
BRANCH  27  34
HETATM   34  O5  UNL     1     -18.713  13.567  10.991  1.00  0.00    -0.390 OA
HETATM   35  H45 UNL     1     -18.761  12.727  10.489  1.00  0.00     0.210 HD
ENDBRANCH  27  34
BRANCH  28  36
HETATM   36  O6  UNL     1     -17.184  11.185  11.134  1.00  0.00    -0.388 OA
HETATM   37  H47 UNL     1     -16.950  10.324  11.535  1.00  0.00     0.210 HD
ENDBRANCH  28  36
ENDBRANCH  22  23
ENDBRANCH  15  22
BRANCH   1  38
HETATM   38  C8  UNL     1      -5.812   6.275  14.891  1.00  0.00     0.008 C 
HETATM   39  C9  UNL     1      -5.410   7.602  15.552  1.00  0.00     0.014 C 
BRANCH  38  40
HETATM   40  C7  UNL     1      -4.628   5.583  14.242  1.00  0.00    -0.026 C 
HETATM   41  C6  UNL     1      -4.663   4.714  13.220  1.00  0.00    -0.026 C 
BRANCH  41  42
HETATM   42  C4  UNL     1      -3.486   3.980  12.599  1.00  0.00     0.007 C 
HETATM   43  C5  UNL     1      -2.332   4.896  12.165  1.00  0.00     0.014 C 
BRANCH  42  44
HETATM   44  C2  UNL     1      -3.967   3.014  11.485  1.00  0.00    -0.015 C 
HETATM   45  C1  UNL     1      -3.480   1.574  11.675  1.00  0.00     0.010 C 
HETATM   46  C3  UNL     1      -5.492   3.026  11.332  1.00  0.00     0.010 C 
ENDBRANCH  42  44
ENDBRANCH  41  42
ENDBRANCH  38  40
ENDBRANCH   1  38
TORSDOF 11
ENDMDL
