MODEL 1
REMARK minimizedAffinity -6.73911619
REMARK CNNscore 0.784125209
REMARK CNNaffinity 6.18851614
REMARK  12 active torsions:
REMARK  status: ('A' for Active; 'I' for Inactive)
REMARK    1  A    between atoms: C2_2  and  C3_3 
REMARK    2  A    between atoms: C2_2  and  C5_6 
REMARK    3  A    between atoms: C3_3  and  C4_4 
REMARK    4  A    between atoms: C4_4  and  O1_5 
REMARK    5  A    between atoms: C5_6  and  C6_7 
REMARK    6  A    between atoms: C6_7  and  C7_8 
REMARK    7  A    between atoms: C7_8  and  C9_10 
REMARK    8  A    between atoms: C10_11  and  O2_12 
REMARK    9  A    between atoms: C11_13  and  O3_14 
REMARK   10  A    between atoms: C22_25  and  O4_26 
REMARK   11  A    between atoms: C25_29  and  O5_30 
REMARK   12  A    between atoms: C27_32  and  O6_33 
ROOT
HETATM    1  C9  UNL     1     -13.010  45.386 -26.730  1.00  0.00     0.029 C 
HETATM    2  C10 UNL     1     -13.339  46.907 -26.664  1.00  0.00     0.152 C 
HETATM    3  C11 UNL     1     -12.065  47.671 -27.102  1.00  0.00     0.155 C 
HETATM    4  C12 UNL     1     -11.359  46.653 -27.991  1.00  0.00     0.060 C 
HETATM    5  C13 UNL     1     -11.501  45.343 -27.165  1.00  0.00    -0.029 C 
HETATM    6  C14 UNL     1     -10.682  45.316 -25.834  1.00  0.00     0.016 C 
HETATM    7  C15 UNL     1     -11.023  44.156 -28.016  1.00  0.00     0.011 C 
HETATM    8  C16 UNL     1      -9.604  44.380 -28.570  1.00  0.00     0.009 C 
HETATM    9  C17 UNL     1      -9.477  45.710 -29.359  1.00  0.00     0.029 C 
HETATM   10  C18 UNL     1      -8.095  45.865 -30.106  1.00  0.00    -0.031 C 
HETATM   11  C19 UNL     1      -6.888  45.686 -29.154  1.00  0.00     0.016 C 
HETATM   12  C20 UNL     1      -7.995  44.721 -31.182  1.00  0.00     0.012 C 
HETATM   13  C21 UNL     1      -7.237  45.145 -32.433  1.00  0.00     0.032 C 
HETATM   14  C22 UNL     1      -7.970  46.276 -33.155  1.00  0.00     0.118 C 
HETATM   15  C23 UNL     1      -8.684  47.236 -32.197  1.00  0.00     0.039 C 
HETATM   16  C24 UNL     1      -7.989  47.267 -30.820  1.00  0.00     0.025 C 
HETATM   17  C25 UNL     1      -8.503  48.450 -29.981  1.00  0.00     0.126 C 
HETATM   18  C26 UNL     1      -9.884  48.214 -29.372  1.00  0.00     0.071 C 
HETATM   19  C27 UNL     1      -9.927  46.942 -28.502  1.00  0.00     0.071 C 
ENDROOT
BRANCH   1  20
HETATM   20  C7  UNL     1     -14.041  44.558 -27.558  1.00  0.00    -0.011 C 
HETATM   21  C8  UNL     1     -15.015  45.380 -28.418  1.00  0.00     0.010 C 
BRANCH  20  22
HETATM   22  C6  UNL     1     -14.892  43.613 -26.663  1.00  0.00     0.005 C 
BRANCH  22  23
HETATM   23  C5  UNL     1     -16.354  43.475 -27.109  1.00  0.00     0.005 C 
BRANCH  23  24
HETATM   24  C2  UNL     1     -16.560  42.452 -28.252  1.00  0.00    -0.017 C 
HETATM   25  C1  UNL     1     -15.733  41.198 -27.949  1.00  0.00     0.010 C 
BRANCH  24  26
HETATM   26  C3  UNL     1     -18.059  42.142 -28.469  1.00  0.00     0.030 C 
BRANCH  26  27
HETATM   27  C4  UNL     1     -18.849  43.251 -29.162  1.00  0.00     0.164 C 
BRANCH  27  28
HETATM   28  O1  UNL     1     -18.035  43.917 -30.116  1.00  0.00    -0.401 OA
HETATM   29  H9  UNL     1     -18.585  44.601 -30.535  1.00  0.00     0.209 HD
ENDBRANCH  27  28
ENDBRANCH  26  27
ENDBRANCH  24  26
ENDBRANCH  23  24
ENDBRANCH  22  23
ENDBRANCH  20  22
ENDBRANCH   1  20
BRANCH   2  30
HETATM   30  O2  UNL     1     -13.708  47.282 -25.338  1.00  0.00    -0.393 OA
HETATM   31  H20 UNL     1     -13.912  48.234 -25.369  1.00  0.00     0.210 HD
ENDBRANCH   2  30
BRANCH   3  32
HETATM   32  O3  UNL     1     -12.450  48.841 -27.820  1.00  0.00    -0.392 OA
HETATM   33  H22 UNL     1     -11.963  49.585 -27.418  1.00  0.00     0.210 HD
ENDBRANCH   3  32
BRANCH  19  34
HETATM   34  O6  UNL     1      -9.078  47.135 -27.377  1.00  0.00    -0.389 OA
HETATM   35  H48 UNL     1      -8.351  47.733 -27.650  1.00  0.00     0.210 HD
ENDBRANCH  19  34
BRANCH  17  36
HETATM   36  O5  UNL     1      -7.589  48.724 -28.913  1.00  0.00    -0.395 OA
HETATM   37  H45 UNL     1      -6.732  48.954 -29.319  1.00  0.00     0.210 HD
ENDBRANCH  17  36
BRANCH  14  38
HETATM   38  O4  UNL     1      -7.010  46.994 -33.926  1.00  0.00    -0.396 OA
HETATM   39  H40 UNL     1      -7.496  47.621 -34.491  1.00  0.00     0.210 HD
ENDBRANCH  14  38
TORSDOF 12
ENDMDL
