MODEL 1
REMARK minimizedAffinity -9.94485855
REMARK CNNscore 0.433998972
REMARK CNNaffinity 7.50063324
REMARK  10 active torsions:
REMARK  status: ('A' for Active; 'I' for Inactive)
REMARK    1  A    between atoms: C2_2  and  C3_3 
REMARK    2  A    between atoms: C4_4  and  C18_19 
REMARK    3  A    between atoms: C19_20  and  O1_21 
REMARK    4  A    between atoms: N2_22  and  C20_23 
REMARK    5  A    between atoms: C20_23  and  C21_24 
REMARK    6  A    between atoms: C21_24  and  O3_26 
REMARK    7  A    between atoms: O3_26  and  C22_27 
REMARK    8  A    between atoms: C36_41  and  C37_42 
REMARK    9  A    between atoms: C43_50  and  O6_51 
REMARK   10  A    between atoms: C45_53  and  O7_54 
ROOT
HETATM    1  C21 UNL     1      -0.766   9.943  14.097  1.00  0.00     0.222 C 
HETATM    2  O2  UNL     1      -1.373  10.356  13.112  1.00  0.00    -0.287 OA
ENDROOT
BRANCH   1   3
HETATM    3  C20 UNL     1       0.264   8.817  14.030  1.00  0.00     0.328 C 
BRANCH   3   4
HETATM    4  N2  UNL     1      -0.250   7.348  13.739  1.00  0.00    -0.023 N 
HETATM    5  C6  UNL     1       0.973   6.385  13.465  1.00  0.00     0.214 C 
HETATM    6  C5  UNL     1       0.440   4.943  13.623  1.00  0.00     0.041 C 
HETATM    7  C7  UNL     1       1.554   6.542  12.018  1.00  0.00     0.109 C 
HETATM    8  C4  UNL     1      -1.069   4.918  13.313  1.00  0.00     0.004 C 
HETATM    9  C3  UNL     1      -1.758   5.484  14.579  1.00  0.00     0.047 C 
HETATM   10  C45 UNL     1      -1.055   6.824  14.951  1.00  0.00     0.329 C 
HETATM   11  N1  UNL     1       2.527   7.657  11.817  1.00  0.00    -0.279 NA
HETATM   12  C15 UNL     1       0.462   6.782  10.937  1.00  0.00     0.035 C 
HETATM   13  C8  UNL     1       3.869   7.489  12.382  1.00  0.00     0.117 C 
HETATM   14  C9  UNL     1       2.519   7.744  10.378  1.00  0.00     0.018 A 
HETATM   15  C10 UNL     1       3.486   8.289   9.550  1.00  0.00     0.024 A 
HETATM   16  C14 UNL     1       1.342   7.205   9.817  1.00  0.00    -0.024 A 
HETATM   17  C11 UNL     1       3.282   8.253   8.166  1.00  0.00     0.002 A 
HETATM   18  C12 UNL     1       2.116   7.692   7.620  1.00  0.00     0.001 A 
HETATM   19  C13 UNL     1       1.126   7.169   8.451  1.00  0.00     0.010 A 
HETATM   20  C16 UNL     1      -0.483   7.924  11.308  1.00  0.00     0.053 C 
HETATM   21  C19 UNL     1      -0.528   5.627  10.831  1.00  0.00     0.139 C 
HETATM   22  C17 UNL     1      -1.181   7.319  12.505  1.00  0.00     0.202 C 
HETATM   23  C18 UNL     1      -1.401   5.826  12.107  1.00  0.00     0.051 C 
BRANCH   9  24
HETATM   24  C2  UNL     1      -3.288   5.645  14.483  1.00  0.00     0.005 C 
HETATM   25  C1  UNL     1      -3.835   6.775  15.345  1.00  0.00     0.005 C 
ENDBRANCH   9  24
BRANCH  10  26
HETATM   26  O7  UNL     1      -0.216   6.554  16.053  1.00  0.00    -0.369 OA
HETATM   27  H61 UNL     1      -0.389   7.254  16.721  1.00  0.00     0.212 HD
ENDBRANCH  10  26
BRANCH  21  28
HETATM   28  O1  UNL     1       0.073   4.354  10.781  1.00  0.00    -0.394 OA
HETATM   29  H24 UNL     1       0.467   4.238   9.892  1.00  0.00     0.210 HD
ENDBRANCH  21  28
ENDBRANCH   3   4
ENDBRANCH   1   3
BRANCH   1  30
HETATM   30  O3  UNL     1      -0.893  10.429  15.359  1.00  0.00     0.000 OA
HETATM   31 BR1  UNL     1      -1.441  11.505  15.626  1.00  0.00    -0.148 Br
BRANCH  30  32
HETATM   32  C22 UNL     1      -2.240  10.483  15.891  1.00  0.00    -0.010 C 
HETATM   33  C23 UNL     1      -2.167  10.118  17.376  1.00  0.00     0.006 C 
HETATM   34  C24 UNL     1      -3.184  10.899  18.210  1.00  0.00     0.010 C 
HETATM   35  C25 UNL     1      -2.927  12.435  18.185  1.00  0.00    -0.035 C 
HETATM   36  C26 UNL     1      -1.758  12.729  19.163  1.00  0.00     0.016 C 
HETATM   37  C27 UNL     1      -2.503  12.895  16.739  1.00  0.00     0.138 C 
HETATM   38  C31 UNL     1      -4.219  13.215  18.616  1.00  0.00     0.001 C 
HETATM   39  C28 UNL     1      -3.115  14.246  16.310  1.00  0.00     0.007 C 
HETATM   40  C44 UNL     1      -2.872  11.860  15.656  1.00  0.00     0.011 C 
HETATM   41  C29 UNL     1      -3.196  15.262  17.433  1.00  0.00     0.008 C 
HETATM   42  C30 UNL     1      -3.991  14.749  18.652  1.00  0.00     0.025 C 
HETATM   43  C43 UNL     1      -5.301  15.542  18.908  1.00  0.00     0.070 C 
HETATM   44  C34 UNL     1      -6.102  15.048  20.151  1.00  0.00    -0.005 C 
HETATM   45  C42 UNL     1      -6.315  15.492  17.748  1.00  0.00     0.040 C 
HETATM   46  C33 UNL     1      -6.189  13.490  20.167  1.00  0.00     0.013 C 
HETATM   47  C35 UNL     1      -5.490  15.502  21.490  1.00  0.00     0.019 C 
HETATM   48  C36 UNL     1      -7.537  15.635  19.902  1.00  0.00     0.028 C 
HETATM   49  C32 UNL     1      -4.848  12.783  19.951  1.00  0.00     0.007 C 
HETATM   50  C41 UNL     1      -7.715  15.501  18.374  1.00  0.00     0.013 C 
BRANCH  43  51
HETATM   51  O6  UNL     1      -4.948  16.924  19.064  1.00  0.00    -0.389 OA
HETATM   52  H57 UNL     1      -4.231  16.995  19.720  1.00  0.00     0.210 HD
ENDBRANCH  43  51
BRANCH  48  53
HETATM   53  C37 UNL     1      -7.810  17.036  20.395  1.00  0.00    -0.045 A 
HETATM   54  C38 UNL     1      -7.393  18.203  19.898  1.00  0.00     0.087 A 
HETATM   55  C39 UNL     1      -7.938  19.258  20.748  1.00  0.00     0.283 A 
HETATM   56  O4  UNL     1      -7.709  20.445  20.620  1.00  0.00    -0.260 OA
HETATM   57  O5  UNL     1      -8.725  18.697  21.705  1.00  0.00    -0.314 OA
HETATM   58  C40 UNL     1      -8.711  17.279  21.548  1.00  0.00     0.213 A 
ENDBRANCH  48  53
ENDBRANCH  30  32
ENDBRANCH   1  30
TORSDOF 10
ENDMDL
