MODEL 1
REMARK minimizedAffinity -6.86891317
REMARK CNNscore 0.414771885
REMARK CNNaffinity 6.28139877
REMARK  10 active torsions:
REMARK  status: ('A' for Active; 'I' for Inactive)
REMARK    1  A    between atoms: C12_14  and  C13_15 
REMARK    2  A    between atoms: C13_15  and  C15_17 
REMARK    3  A    between atoms: C15_17  and  C16_18 
REMARK    4  A    between atoms: C16_18  and  C17_19 
REMARK    5  A    between atoms: C18_20  and  C20_22 
REMARK    6  A    between atoms: C20_22  and  O3_23 
REMARK    7  A    between atoms: C26_29  and  C27_30 
REMARK    8  A    between atoms: C27_30  and  C28_31 
REMARK    9  A    between atoms: C28_31  and  C29_32 
REMARK   10  A    between atoms: C29_32  and  O5_34 
ROOT
HETATM    1  C1  UNL     1       7.889  58.598  -5.071  1.00  0.00     0.025 C 
HETATM    2  C2  UNL     1       7.677  57.295  -5.292  1.00  0.00     0.015 C 
HETATM    3  C3  UNL     1       8.812  56.377  -5.549  1.00  0.00     0.289 C 
HETATM    4  O1  UNL     1       9.994  56.618  -5.392  1.00  0.00    -0.260 OA
HETATM    5  O2  UNL     1       8.296  55.197  -5.988  1.00  0.00    -0.311 OA
HETATM    6  C4  UNL     1       6.886  55.339  -6.243  1.00  0.00     0.142 C 
HETATM    7  C5  UNL     1       6.690  55.549  -7.740  1.00  0.00     0.039 C 
HETATM    8  C6  UNL     1       5.255  55.871  -8.185  1.00  0.00     0.006 C 
HETATM    9  C7  UNL     1       4.524  56.878  -7.258  1.00  0.00    -0.027 A 
HETATM   10  C8  UNL     1       3.059  57.149  -7.669  1.00  0.00     0.011 C 
HETATM   11  C9  UNL     1       2.241  55.912  -8.065  1.00  0.00     0.011 C 
HETATM   12  C10 UNL     1       2.982  55.069  -9.115  1.00  0.00    -0.032 C 
HETATM   13  C11 UNL     1       3.152  55.929 -10.400  1.00  0.00     0.016 C 
HETATM   14  C12 UNL     1       2.356  53.690  -9.503  1.00  0.00    -0.002 C 
HETATM   15  C21 UNL     1       3.596  52.852  -9.944  1.00  0.00     0.006 C 
HETATM   16  C22 UNL     1       4.855  53.622  -9.499  1.00  0.00     0.011 C 
HETATM   17  C23 UNL     1       4.348  54.621  -8.448  1.00  0.00    -0.032 C 
HETATM   18  C24 UNL     1       4.168  53.821  -7.117  1.00  0.00     0.016 C 
HETATM   19  C25 UNL     1       5.211  58.179  -6.918  1.00  0.00     0.022 A 
HETATM   20  C26 UNL     1       5.102  57.141  -5.821  1.00  0.00    -0.021 A 
HETATM   21  C30 UNL     1       6.417  56.490  -5.370  1.00  0.00     0.063 C 
ENDROOT
BRANCH  14  22
HETATM   22  C13 UNL     1       1.133  53.526 -10.459  1.00  0.00    -0.014 C 
HETATM   23  C14 UNL     1       1.393  52.867 -11.823  1.00  0.00     0.010 C 
BRANCH  22  24
HETATM   24  C15 UNL     1       0.323  54.823 -10.694  1.00  0.00     0.008 C 
BRANCH  24  25
HETATM   25  C16 UNL     1      -0.907  55.031  -9.800  1.00  0.00     0.028 C 
BRANCH  25  26
HETATM   26  C17 UNL     1      -2.195  54.597 -10.444  1.00  0.00    -0.022 C 
HETATM   27  C18 UNL     1      -2.826  53.411 -10.314  1.00  0.00    -0.064 C 
HETATM   28  C19 UNL     1      -2.336  52.292  -9.434  1.00  0.00     0.045 C 
BRANCH  27  29
HETATM   29  C20 UNL     1      -4.108  53.068 -11.047  1.00  0.00     0.197 C 
BRANCH  29  30
HETATM   30  O3  UNL     1      -4.169  53.669 -12.332  1.00  0.00    -0.397 OA
HETATM   31  H29 UNL     1      -4.141  54.629 -12.184  1.00  0.00     0.209 HD
ENDBRANCH  29  30
ENDBRANCH  27  29
ENDBRANCH  25  26
ENDBRANCH  24  25
ENDBRANCH  22  24
ENDBRANCH  14  22
BRANCH  20  32
HETATM   32  C27 UNL     1       4.096  57.308  -4.673  1.00  0.00     0.021 C 
BRANCH  32  33
HETATM   33  C28 UNL     1       4.505  58.317  -3.601  1.00  0.00     0.111 C 
BRANCH  33  34
HETATM   34  C29 UNL     1       3.550  59.460  -3.391  1.00  0.00     0.139 C 
HETATM   35  O4  UNL     1       2.526  59.410  -2.729  1.00  0.00    -0.650 OA
BRANCH  34  36
HETATM   36  O5  UNL     1       3.953  60.624  -3.929  1.00  0.00    -0.776 OA
HETATM   37  H43 UNL     1       3.259  61.262  -3.656  1.00  0.00     0.167 HD
ENDBRANCH  34  36
ENDBRANCH  33  34
ENDBRANCH  32  33
ENDBRANCH  20  32
TORSDOF 10
ENDMDL
