MODEL 1
REMARK minimizedAffinity -7.48479652
REMARK CNNscore 0.426008642
REMARK CNNaffinity 7.03305244
REMARK  9 active torsions:
REMARK  status: ('A' for Active; 'I' for Inactive)
REMARK    1  A    between atoms: C2_2  and  C30_36 
REMARK    2  A    between atoms: C3_3  and  C4_4 
REMARK    3  A    between atoms: C4_4  and  C5_5 
REMARK    4  A    between atoms: C4_4  and  N1_8 
REMARK       I    between atoms: N1_8  and  C9_10 
REMARK    5  A    between atoms: C9_10  and  C10_12 
REMARK    6  A    between atoms: C10_12  and  N2_13 
REMARK    7  A    between atoms: C10_12  and  C26_32 
REMARK       I    between atoms: N2_13  and  C11_14 
REMARK    8  A    between atoms: C11_14  and  C12_16 
REMARK    9  A    between atoms: C30_36  and  O4_38 
ROOT
HETATM    1  N2  UNL     1      -2.095  50.330 -17.253  1.00  0.00    -0.345 N 
HETATM    2  C11 UNL     1      -1.085  50.039 -18.165  1.00  0.00     0.253 C 
HETATM    3  O2  UNL     1      -0.087  49.404 -17.843  1.00  0.00    -0.271 OA
HETATM    4  H17 UNL     1      -2.722  51.078 -17.510  1.00  0.00     0.163 HD
ENDROOT
BRANCH   1   5
HETATM    5  C10 UNL     1      -1.876  50.091 -15.821  1.00  0.00     0.184 C 
BRANCH   5   6
HETATM    6  C9  UNL     1      -0.670  50.865 -15.187  1.00  0.00     0.243 C 
HETATM    7  N1  UNL     1      -0.517  51.023 -13.811  1.00  0.00    -0.346 N 
HETATM    8  C8  UNL     1      -1.483  50.600 -12.806  1.00  0.00     0.153 C 
HETATM    9  O1  UNL     1       0.089  51.442 -15.978  1.00  0.00    -0.271 OA
BRANCH   7  10
HETATM   10  C4  UNL     1       0.691  51.676 -13.252  1.00  0.00     0.113 C 
BRANCH  10  11
HETATM   11  C3  UNL     1       1.831  50.686 -13.164  1.00  0.00     0.012 C 
HETATM   12  C2  UNL     1       2.984  50.684 -13.868  1.00  0.00     0.010 C 
HETATM   13  C1  UNL     1       3.409  51.705 -14.880  1.00  0.00     0.055 C 
BRANCH  12  14
HETATM   14  C30 UNL     1       3.925  49.566 -13.591  1.00  0.00     0.171 C 
HETATM   15  O3  UNL     1       5.140  49.616 -13.561  1.00  0.00    -0.646 OA
BRANCH  14  16
HETATM   16  O4  UNL     1       3.283  48.410 -13.348  1.00  0.00    -0.773 OA
HETATM   17  H44 UNL     1       4.018  47.781 -13.187  1.00  0.00     0.167 HD
ENDBRANCH  14  16
ENDBRANCH  12  14
ENDBRANCH  10  11
BRANCH  10  18
HETATM   18  C5  UNL     1       0.493  52.560 -11.984  1.00  0.00     0.004 C 
HETATM   19  C6  UNL     1      -0.953  53.052 -11.863  1.00  0.00     0.012 C 
HETATM   20  C7  UNL     1       0.952  51.980 -10.648  1.00  0.00     0.012 C 
ENDBRANCH  10  18
ENDBRANCH   7  10
ENDBRANCH   5   6
BRANCH   5  21
HETATM   21  C26 UNL     1      -1.915  48.564 -15.436  1.00  0.00    -0.022 C 
HETATM   22  C27 UNL     1      -2.789  48.266 -14.208  1.00  0.00     0.017 C 
HETATM   23  C28 UNL     1      -2.443  47.714 -16.613  1.00  0.00     0.017 C 
HETATM   24  C29 UNL     1      -0.479  48.071 -15.137  1.00  0.00     0.017 C 
ENDBRANCH   5  21
ENDBRANCH   1   5
BRANCH   2  25
HETATM   25  C12 UNL     1      -1.336  50.634 -19.579  1.00  0.00     0.326 C 
HETATM   26  N3  UNL     1      -0.178  51.488 -20.019  1.00  0.00     0.104 N 
HETATM   27  C13 UNL     1       0.337  52.381 -18.983  1.00  0.00     0.311 C 
HETATM   28  C14 UNL     1      -0.541  52.283 -21.211  1.00  0.00     0.330 C 
HETATM   29  C15 UNL     1      -1.266  51.447 -22.205  1.00  0.00     0.046 A 
HETATM   30  C16 UNL     1      -1.824  50.198 -22.004  1.00  0.00    -0.011 A 
HETATM   31  N4  UNL     1      -1.496  51.822 -23.498  1.00  0.00    -0.357 N 
HETATM   32  C17 UNL     1      -2.388  49.784 -23.253  1.00  0.00    -0.000 A 
HETATM   33  C23 UNL     1      -1.700  49.507 -20.648  1.00  0.00     0.022 C 
HETATM   34  C18 UNL     1      -3.039  48.624 -23.722  1.00  0.00     0.014 A 
HETATM   35  C22 UNL     1      -2.185  50.831 -24.159  1.00  0.00     0.043 A 
HETATM   36  C19 UNL     1      -3.482  48.561 -25.049  1.00  0.00     0.001 A 
HETATM   37  C20 UNL     1      -3.281  49.629 -25.916  1.00  0.00     0.002 A 
HETATM   38  C21 UNL     1      -2.623  50.783 -25.488  1.00  0.00     0.030 A 
HETATM   39  C24 UNL     1      -3.032  48.855 -20.229  1.00  0.00     0.023 C 
HETATM   40  C25 UNL     1      -0.615  48.415 -20.767  1.00  0.00     0.023 C 
HETATM   41  H28 UNL     1      -1.191  52.687 -23.924  1.00  0.00     0.166 HD
ENDBRANCH   2  25
TORSDOF 9
ENDMDL
