MODEL 1
REMARK minimizedAffinity -7.87646294
REMARK CNNscore 0.746350288
REMARK CNNaffinity 7.05978441
REMARK  7 active torsions:
REMARK  status: ('A' for Active; 'I' for Inactive)
REMARK    1  A    between atoms: C2_2  and  C30_32 
REMARK    2  A    between atoms: C3_3  and  C4_4 
REMARK    3  A    between atoms: C4_4  and  C5_5 
REMARK    4  A    between atoms: C5_5  and  C6_6 
REMARK    5  A    between atoms: C6_6  and  C8_8 
REMARK    6  A    between atoms: C29_30  and  O2_31 
REMARK    7  A    between atoms: C30_32  and  O3_33 
ROOT
HETATM    1  C8  UNL     1       5.881  55.904  -8.290  1.00  0.00    -0.002 C 
HETATM    2  C9  UNL     1       6.593  54.741  -9.024  1.00  0.00     0.007 C 
HETATM    3  C10 UNL     1       5.491  53.932  -9.747  1.00  0.00     0.015 C 
HETATM    4  C11 UNL     1       4.227  54.814  -9.693  1.00  0.00    -0.010 C 
HETATM    5  C12 UNL     1       4.323  55.828 -10.880  1.00  0.00     0.021 C 
HETATM    6  C13 UNL     1       2.842  54.174  -9.807  1.00  0.00    -0.039 C 
HETATM    7  C14 UNL     1       1.772  54.804  -9.246  1.00  0.00    -0.066 C 
HETATM    8  C15 UNL     1       1.939  56.105  -8.436  1.00  0.00     0.036 C 
HETATM    9  C16 UNL     1       3.373  56.592  -8.135  1.00  0.00     0.015 C 
HETATM   10  C17 UNL     1       4.391  55.454  -8.264  1.00  0.00    -0.029 C 
HETATM   11  C18 UNL     1       4.144  54.447  -7.103  1.00  0.00     0.016 C 
HETATM   12  C19 UNL     1       0.325  54.243  -9.357  1.00  0.00    -0.015 C 
HETATM   13  C20 UNL     1      -0.051  53.680  -7.963  1.00  0.00     0.020 C 
HETATM   14  C21 UNL     1      -0.669  55.381  -9.732  1.00  0.00     0.021 C 
HETATM   15  C22 UNL     1      -1.955  54.940 -10.427  1.00  0.00     0.080 C 
HETATM   16  C23 UNL     1      -2.266  53.476 -10.230  1.00  0.00     0.135 C 
HETATM   17  O1  UNL     1      -3.378  53.121  -9.837  1.00  0.00    -0.297 OA
HETATM   18  C24 UNL     1      -1.176  52.475 -10.631  1.00  0.00     0.018 C 
HETATM   19  C25 UNL     1      -1.428  52.116 -12.111  1.00  0.00     0.023 C 
HETATM   20  C26 UNL     1      -1.338  51.179  -9.812  1.00  0.00     0.023 C 
HETATM   21  C27 UNL     1       0.230  53.155 -10.486  1.00  0.00     0.016 C 
HETATM   22  C28 UNL     1       1.389  52.154 -10.374  1.00  0.00     0.043 C 
HETATM   23  C29 UNL     1       2.733  52.859 -10.545  1.00  0.00     0.148 C 
ENDROOT
BRANCH   1  24
HETATM   24  C6  UNL     1       6.539  56.402  -6.967  1.00  0.00    -0.014 C 
HETATM   25  C7  UNL     1       5.592  57.104  -5.985  1.00  0.00     0.010 C 
BRANCH  24  26
HETATM   26  C5  UNL     1       7.230  55.202  -6.261  1.00  0.00     0.008 C 
BRANCH  26  27
HETATM   27  C4  UNL     1       7.828  55.541  -4.891  1.00  0.00     0.028 C 
BRANCH  27  28
HETATM   28  C3  UNL     1       9.308  55.271  -4.867  1.00  0.00    -0.022 C 
HETATM   29  C2  UNL     1      10.308  56.175  -4.923  1.00  0.00    -0.064 C 
HETATM   30  C1  UNL     1      10.107  57.667  -4.958  1.00  0.00     0.045 C 
BRANCH  29  31
HETATM   31  C30 UNL     1      11.750  55.735  -4.923  1.00  0.00     0.197 C 
BRANCH  31  32
HETATM   32  O3  UNL     1      12.580  56.886  -4.961  1.00  0.00    -0.397 OA
HETATM   33  H48 UNL     1      13.496  56.566  -4.929  1.00  0.00     0.209 HD
ENDBRANCH  31  32
ENDBRANCH  29  31
ENDBRANCH  27  28
ENDBRANCH  26  27
ENDBRANCH  24  26
ENDBRANCH   1  24
BRANCH  23  34
HETATM   34  O2  UNL     1       2.918  53.093 -11.938  1.00  0.00    -0.391 OA
HETATM   35  H45 UNL     1       3.869  53.217 -12.082  1.00  0.00     0.210 HD
ENDBRANCH  23  34
TORSDOF 7
ENDMDL
