MODEL 1
REMARK minimizedAffinity -8.17245007
REMARK CNNscore 0.853337765
REMARK CNNaffinity 7.55073118
REMARK  13 active torsions:
REMARK  status: ('A' for Active; 'I' for Inactive)
REMARK    1  A    between atoms: C2_2  and  C3_3 
REMARK    2  A    between atoms: C2_2  and  C4_5 
REMARK    3  A    between atoms: C3_3  and  O1_4 
REMARK    4  A    between atoms: C4_5  and  C5_6 
REMARK    5  A    between atoms: C5_6  and  C6_7 
REMARK    6  A    between atoms: C6_7  and  O2_8 
REMARK    7  A    between atoms: C6_7  and  C7_9 
REMARK    8  A    between atoms: C7_9  and  C9_11 
REMARK    9  A    between atoms: C10_12  and  O3_13 
REMARK   10  A    between atoms: O3_13  and  C11_14 
REMARK   11  A    between atoms: C13_17  and  O5_18 
REMARK   12  A    between atoms: C14_19  and  O6_20 
REMARK   13  A    between atoms: C15_21  and  O7_22 
ROOT
HETATM    1  C9  UNL     1      -1.458  10.865  18.308  1.00  0.00     0.029 C 
HETATM    2  C10 UNL     1      -2.841  11.578  18.424  1.00  0.00     0.130 C 
HETATM    3  C16 UNL     1      -3.631  11.155  17.162  1.00  0.00     0.038 C 
HETATM    4  C17 UNL     1      -2.828   9.996  16.586  1.00  0.00     0.001 C 
HETATM    5  C18 UNL     1      -3.106   9.546  15.148  1.00  0.00    -0.004 C 
HETATM    6  C19 UNL     1      -4.591   9.198  14.931  1.00  0.00     0.010 C 
HETATM    7  C20 UNL     1      -4.858   8.613  13.542  1.00  0.00     0.035 C 
HETATM    8  C21 UNL     1      -3.925   7.448  13.312  1.00  0.00    -0.068 C 
HETATM    9  C22 UNL     1      -4.420   6.201  13.216  1.00  0.00     0.053 C 
HETATM   10  C23 UNL     1      -3.536   5.015  13.293  1.00  0.00     0.149 C 
HETATM   11  O8  UNL     1      -4.009   3.894  13.132  1.00  0.00    -0.293 OA
HETATM   12  C24 UNL     1      -2.098   5.243  13.682  1.00  0.00     0.084 C 
HETATM   13  C25 UNL     1      -1.589   6.514  13.025  1.00  0.00     0.022 C 
HETATM   14  C26 UNL     1      -2.428   7.779  13.370  1.00  0.00    -0.016 C 
HETATM   15  C27 UNL     1      -2.055   8.824  12.286  1.00  0.00     0.020 C 
HETATM   16  C28 UNL     1      -2.171   8.327  14.820  1.00  0.00     0.002 C 
HETATM   17  C29 UNL     1      -0.685   8.634  15.137  1.00  0.00     0.007 C 
HETATM   18  C30 UNL     1      -0.464   9.224  16.544  1.00  0.00     0.010 C 
HETATM   19  C31 UNL     1      -1.362  10.443  16.808  1.00  0.00    -0.034 C 
HETATM   20  C32 UNL     1      -0.930  11.596  15.880  1.00  0.00     0.016 C 
ENDROOT
BRANCH   2  21
HETATM   21  O3  UNL     1      -2.723  12.987  18.496  1.00  0.00    -0.353 OA
BRANCH  21  22
HETATM   22  C11 UNL     1      -3.825  13.616  19.165  1.00  0.00     0.291 C 
HETATM   23  O4  UNL     1      -4.563  12.654  19.914  1.00  0.00    -0.356 OA
HETATM   24  C12 UNL     1      -5.683  13.228  20.575  1.00  0.00     0.205 C 
HETATM   25  C13 UNL     1      -6.681  13.785  19.568  1.00  0.00     0.173 C 
HETATM   26  C14 UNL     1      -6.006  14.815  18.658  1.00  0.00     0.182 C 
HETATM   27  C15 UNL     1      -4.689  14.288  18.075  1.00  0.00     0.204 C 
BRANCH  25  28
HETATM   28  O5  UNL     1      -7.804  14.385  20.226  1.00  0.00    -0.391 OA
HETATM   29  H24 UNL     1      -7.484  15.126  20.773  1.00  0.00     0.210 HD
ENDBRANCH  25  28
BRANCH  26  30
HETATM   30  O6  UNL     1      -6.923  15.160  17.606  1.00  0.00    -0.390 OA
HETATM   31  H26 UNL     1      -7.783  15.327  18.033  1.00  0.00     0.210 HD
ENDBRANCH  26  30
BRANCH  27  32
HETATM   32  O7  UNL     1      -3.959  15.391  17.506  1.00  0.00    -0.388 OA
HETATM   33  H28 UNL     1      -3.104  15.015  17.191  1.00  0.00     0.210 HD
ENDBRANCH  27  32
ENDBRANCH  21  22
ENDBRANCH   2  21
BRANCH   1  34
HETATM   34  C7  UNL     1      -0.207  11.456  19.027  1.00  0.00     0.017 C 
HETATM   35  C8  UNL     1       0.470  12.476  18.091  1.00  0.00     0.013 C 
BRANCH  34  36
HETATM   36  C6  UNL     1       0.842  10.478  19.631  1.00  0.00     0.122 C 
BRANCH  36  37
HETATM   37  C5  UNL     1       1.617  11.083  20.823  1.00  0.00     0.032 C 
BRANCH  37  38
HETATM   38  C4  UNL     1       2.897  10.320  21.191  1.00  0.00     0.009 C 
BRANCH  38  39
HETATM   39  C2  UNL     1       2.997   9.990  22.695  1.00  0.00     0.005 C 
HETATM   40  C1  UNL     1       4.336  10.439  23.285  1.00  0.00     0.012 C 
BRANCH  39  41
HETATM   41  C3  UNL     1       2.788   8.485  22.934  1.00  0.00     0.168 C 
BRANCH  41  42
HETATM   42  O1  UNL     1       1.665   8.008  22.208  1.00  0.00    -0.400 OA
HETATM   43  H7  UNL     1       1.599   7.053  22.379  1.00  0.00     0.209 HD
ENDBRANCH  41  42
ENDBRANCH  39  41
ENDBRANCH  38  39
ENDBRANCH  37  38
ENDBRANCH  36  37
BRANCH  36  44
HETATM   44  O2  UNL     1       1.829  10.117  18.655  1.00  0.00    -0.395 OA
HETATM   45  H13 UNL     1       2.383   9.428  19.068  1.00  0.00     0.210 HD
ENDBRANCH  36  44
ENDBRANCH  34  36
ENDBRANCH   1  34
TORSDOF 13
ENDMDL
