MODEL 1
REMARK minimizedAffinity -8.58631992
REMARK  11 active torsions:
REMARK  status: ('A' for Active; 'I' for Inactive)
REMARK    1  A    between atoms: C4_4  and  C5_5 
REMARK    2  A    between atoms: C5_5  and  C6_6 
REMARK    3  A    between atoms: C6_6  and  C7_7 
REMARK    4  A    between atoms: C9_9  and  C10_10 
REMARK    5  A    between atoms: C10_10  and  C11_11 
REMARK    6  A    between atoms: C11_11  and  C12_12 
REMARK    7  A    between atoms: C14_14  and  C15_15 
REMARK    8  A    between atoms: C15_15  and  C16_16 
REMARK    9  A    between atoms: C16_16  and  O1_17 
REMARK   10  A    between atoms: O1_17  and  C17_18 
REMARK   11  A    between atoms: C23_24  and  O2_25 
ROOT
HETATM    1  C16 UNL     1      -1.682  48.238 -19.744  1.00  0.00     0.175 C 
ENDROOT
BRANCH   1   2
HETATM    2  C15 UNL     1      -3.089  47.787 -20.180  1.00  0.00     0.054 C 
BRANCH   2   3
HETATM    3  C14 UNL     1      -3.316  48.002 -21.657  1.00  0.00    -0.022 C 
HETATM    4  C12 UNL     1      -4.385  48.572 -22.251  1.00  0.00    -0.087 C 
HETATM    5  C13 UNL     1      -5.539  49.193 -21.511  1.00  0.00     0.043 C 
BRANCH   4   6
HETATM    6  C11 UNL     1      -4.476  48.633 -23.766  1.00  0.00     0.037 C 
BRANCH   6   7
HETATM    7  C10 UNL     1      -3.112  48.441 -24.445  1.00  0.00     0.031 C 
BRANCH   7   8
HETATM    8  C9  UNL     1      -2.858  49.504 -25.486  1.00  0.00    -0.024 C 
HETATM    9  C7  UNL     1      -3.284  49.516 -26.765  1.00  0.00    -0.087 C 
HETATM   10  C8  UNL     1      -4.146  48.431 -27.364  1.00  0.00     0.043 C 
BRANCH   9  11
HETATM   11  C6  UNL     1      -2.963  50.628 -27.758  1.00  0.00     0.037 C 
BRANCH  11  12
HETATM   12  C5  UNL     1      -2.295  51.901 -27.213  1.00  0.00     0.031 C 
BRANCH  12  13
HETATM   13  C4  UNL     1      -0.950  52.136 -27.851  1.00  0.00    -0.024 C 
HETATM   14  C2  UNL     1       0.235  51.616 -27.476  1.00  0.00    -0.091 C 
HETATM   15  C1  UNL     1       0.439  50.741 -26.269  1.00  0.00     0.042 C 
HETATM   16  C3  UNL     1       1.486  51.904 -28.264  1.00  0.00     0.042 C 
ENDBRANCH  12  13
ENDBRANCH  11  12
ENDBRANCH   9  11
ENDBRANCH   7   8
ENDBRANCH   6   7
ENDBRANCH   4   6
ENDBRANCH   2   3
ENDBRANCH   1   2
BRANCH   1  17
HETATM   17  O1  UNL     1      -1.752  49.181 -18.672  1.00  0.00    -0.355 OA
BRANCH  17  18
HETATM   18  C17 UNL     1      -1.317  50.521 -18.984  1.00  0.00     0.166 C 
HETATM   19  C18 UNL     1      -2.531  51.401 -18.647  1.00  0.00     0.079 C 
HETATM   20  C19 UNL     1      -0.110  50.799 -18.084  1.00  0.00     0.073 C 
HETATM   21  C20 UNL     1       0.421  52.205 -18.296  1.00  0.00     0.047 C 
HETATM   22  C21 UNL     1       0.495  52.523 -19.759  1.00  0.00    -0.021 A 
HETATM   23  C22 UNL     1       1.250  53.622 -20.189  1.00  0.00     0.046 A 
HETATM   24  C27 UNL     1      -0.207  51.764 -20.706  1.00  0.00     0.085 A 
HETATM   25  C23 UNL     1       1.316  53.936 -21.540  1.00  0.00     0.066 A 
HETATM   26  C24 UNL     1       0.650  53.165 -22.489  1.00  0.00     0.046 A 
HETATM   27  C25 UNL     1      -0.117  52.065 -22.078  1.00  0.00    -0.025 A 
HETATM   28  C26 UNL     1      -0.844  51.231 -23.096  1.00  0.00     0.051 C 
HETATM   29  O3  UNL     1      -1.000  50.697 -20.372  1.00  0.00    -0.314 OA
BRANCH  25  30
HETATM   30  O2  UNL     1       2.049  55.032 -21.900  1.00  0.00    -0.361 OA
HETATM   31  H36 UNL     1       1.970  55.146 -22.863  1.00  0.00     0.217 HD
ENDBRANCH  25  30
ENDBRANCH  17  18
ENDBRANCH   1  17
TORSDOF 11
ENDMDL
