MODEL 1
REMARK minimizedAffinity -7.69186974
REMARK CNNscore 0.734624863
REMARK CNNaffinity 6.21115255
REMARK  10 active torsions:
REMARK  status: ('A' for Active; 'I' for Inactive)
REMARK    1  A    between atoms: N1_6  and  O1_8 
REMARK    2  A    between atoms: O1_8  and  C6_9 
REMARK    3  A    between atoms: C6_9  and  C7_10 
REMARK       I    between atoms: C7_10  and  N2_12 
REMARK    4  A    between atoms: N2_12  and  C8_13 
REMARK    5  A    between atoms: C8_13  and  C9_14 
REMARK    6  A    between atoms: C20_27  and  O3_28 
REMARK    7  A    between atoms: C27_35  and  O4_36 
REMARK    8  A    between atoms: C27_35  and  C28_37 
REMARK    9  A    between atoms: C28_37  and  C29_39 
REMARK   10  A    between atoms: C29_39  and  O6_40 
ROOT
HETATM    1  C1  UNL     1       5.045  52.308  -9.080  1.00  0.00     0.020 C 
HETATM    2  C2  UNL     1       4.355  53.691  -8.976  1.00  0.00    -0.014 C 
HETATM    3  C3  UNL     1       5.141  54.721  -9.822  1.00  0.00     0.020 C 
HETATM    4  C4  UNL     1       6.577  54.953  -9.340  1.00  0.00     0.060 C 
HETATM    5  C5  UNL     1       6.708  55.123  -7.840  1.00  0.00     0.032 C 
HETATM    6  N1  UNL     1       7.845  55.566  -7.393  1.00  0.00    -0.271 N 
ATOM      7  H1  UNL     1       8.633  55.824  -7.987  1.00  0.00     0.194 HD
HETATM    8  C14 UNL     1       5.526  54.790  -7.003  1.00  0.00     0.030 C 
HETATM    9  C15 UNL     1       4.448  54.171  -7.521  1.00  0.00    -0.069 C 
HETATM   10  C16 UNL     1       3.184  54.114  -6.709  1.00  0.00     0.035 C 
HETATM   11  C17 UNL     1       2.188  55.034  -7.407  1.00  0.00     0.010 C 
HETATM   12  C18 UNL     1       1.865  54.575  -8.850  1.00  0.00    -0.002 C 
HETATM   13  C19 UNL     1       2.834  53.490  -9.381  1.00  0.00     0.031 C 
HETATM   14  C20 UNL     1       2.505  53.167 -10.867  1.00  0.00     0.124 C 
HETATM   15  C21 UNL     1       1.027  53.385 -11.241  1.00  0.00     0.045 C 
HETATM   16  C22 UNL     1       0.015  53.151 -10.096  1.00  0.00     0.001 C 
HETATM   17  C23 UNL     1       0.036  51.650  -9.733  1.00  0.00     0.019 C 
HETATM   18  C24 UNL     1       0.389  54.072  -8.898  1.00  0.00     0.002 C 
HETATM   19  C25 UNL     1      -0.579  55.277  -8.948  1.00  0.00     0.009 C 
HETATM   20  C26 UNL     1      -1.428  55.109 -10.198  1.00  0.00     0.047 C 
HETATM   21  C27 UNL     1      -1.426  53.615 -10.490  1.00  0.00     0.128 C 
ENDROOT
BRANCH   6  22
HETATM   22  O1  UNL     1       7.852  55.642  -5.992  1.00  0.00    -0.271 OA
BRANCH  22  23
HETATM   23  C6  UNL     1       8.775  56.637  -5.583  1.00  0.00     0.303 C 
BRANCH  23  24
HETATM   24  C7  UNL     1       9.899  56.019  -4.753  1.00  0.00     0.244 C 
HETATM   25  O2  UNL     1       9.752  55.575  -3.617  1.00  0.00    -0.271 OA
HETATM   26  N2  UNL     1      11.120  56.011  -5.406  1.00  0.00    -0.355 N 
HETATM   27  H10 UNL     1      11.210  56.503  -6.286  1.00  0.00     0.162 HD
BRANCH  26  28
HETATM   28  C8  UNL     1      12.332  55.594  -4.743  1.00  0.00     0.161 C 
BRANCH  28  29
HETATM   29  C9  UNL     1      12.811  54.282  -5.303  1.00  0.00    -0.038 A 
HETATM   30  C10 UNL     1      12.225  53.079  -4.895  1.00  0.00     0.025 A 
HETATM   31  C11 UNL     1      12.723  51.891  -5.401  1.00  0.00     0.088 A 
HETATM   32  N3  UNL     1      13.750  51.821  -6.274  1.00  0.00    -0.375 N 
HETATM   33  C12 UNL     1      14.303  52.992  -6.656  1.00  0.00     0.088 A 
ATOM     34  H3  UNL     1      14.092  50.928  -6.628  1.00  0.00     0.164 HD
HETATM   35  C13 UNL     1      13.877  54.231  -6.205  1.00  0.00     0.025 A 
ENDBRANCH  28  29
ENDBRANCH  26  28
ENDBRANCH  23  24
ENDBRANCH  22  23
ENDBRANCH   6  22
BRANCH  14  36
HETATM   36  O3  UNL     1       3.261  53.958 -11.773  1.00  0.00    -0.395 OA
HETATM   37  H25 UNL     1       2.973  53.741 -12.676  1.00  0.00     0.210 HD
ENDBRANCH  14  36
BRANCH  21  38
HETATM   38  O4  UNL     1      -1.629  53.448 -11.905  1.00  0.00    -0.381 OA
HETATM   39  H36 UNL     1      -1.963  52.536 -12.028  1.00  0.00     0.211 HD
ENDBRANCH  21  38
BRANCH  21  40
HETATM   40  C28 UNL     1      -2.603  52.838  -9.842  1.00  0.00     0.184 C 
HETATM   41  O5  UNL     1      -2.656  52.740  -8.606  1.00  0.00    -0.292 OA
BRANCH  40  42
HETATM   42  C29 UNL     1      -3.707  52.234 -10.699  1.00  0.00     0.245 C 
BRANCH  42  43
HETATM   43  O6  UNL     1      -4.477  53.195 -11.384  1.00  0.00    -0.393 OA
HETATM   44  H39 UNL     1      -5.097  53.577 -10.735  1.00  0.00     0.209 HD
ENDBRANCH  42  43
ENDBRANCH  40  42
ENDBRANCH  21  40
TORSDOF 10
ENDMDL
