MODEL 1
REMARK minimizedAffinity -8.30063534
REMARK CNNscore 0.551171362
REMARK CNNaffinity 7.30237198
REMARK  7 active torsions:
REMARK  status: ('A' for Active; 'I' for Inactive)
REMARK    1  A    between atoms: C3_3  and  C5_5 
REMARK    2  A    between atoms: C24_26  and  O3_27 
REMARK    3  A    between atoms: C30_35  and  O6_36 
REMARK    4  A    between atoms: C31_38  and  O8_39 
REMARK    5  A    between atoms: C32_40  and  O9_41 
REMARK    6  A    between atoms: O9_41  and  C33_42 
REMARK    7  A    between atoms: C33_42  and  C34_44 
ROOT
HETATM    1  C5  UNL     1      13.908  -7.737   4.784  1.00  0.00     0.160 C 
HETATM    2  O1  UNL     1      13.221  -6.530   4.441  1.00  0.00    -0.342 OA
HETATM    3  C6  UNL     1      14.109  -5.478   4.021  1.00  0.00     0.196 C 
HETATM    4  C7  UNL     1      13.270  -4.177   4.145  1.00  0.00     0.104 C 
HETATM    5  C8  UNL     1      13.608  -3.147   3.070  1.00  0.00     0.139 C 
HETATM    6  C9  UNL     1      13.562  -3.749   1.659  1.00  0.00     0.065 C 
HETATM    7  C10 UNL     1      13.531  -5.281   1.710  1.00  0.00     0.131 C 
HETATM    8  C11 UNL     1      13.761  -5.981   0.358  1.00  0.00     0.059 C 
HETATM    9  C12 UNL     1      14.979  -5.553  -0.423  1.00  0.00    -0.022 C 
HETATM   10  C13 UNL     1      16.150  -6.208  -0.570  1.00  0.00    -0.087 C 
HETATM   11  C14 UNL     1      16.447  -7.505   0.147  1.00  0.00     0.043 C 
HETATM   12  C15 UNL     1      17.327  -5.731  -1.423  1.00  0.00     0.041 C 
HETATM   13  C16 UNL     1      17.281  -4.397  -2.222  1.00  0.00     0.008 C 
HETATM   14  C17 UNL     1      16.358  -4.500  -3.444  1.00  0.00     0.014 C 
HETATM   15  C18 UNL     1      16.963  -3.173  -1.385  1.00  0.00    -0.022 C 
HETATM   16  C19 UNL     1      17.591  -2.863  -0.239  1.00  0.00    -0.003 C 
HETATM   17  C20 UNL     1      17.162  -1.780   0.611  1.00  0.00     0.008 C 
HETATM   18  C21 UNL     1      17.768  -1.422   1.754  1.00  0.00    -0.019 C 
HETATM   19  C22 UNL     1      19.078  -1.928   2.291  1.00  0.00     0.206 C 
HETATM   20  O2  UNL     1      19.436  -1.032   3.375  1.00  0.00    -0.375 OA
HETATM   21  C23 UNL     1      18.657   0.169   3.138  1.00  0.00     0.194 C 
HETATM   22  C24 UNL     1      18.608   1.083   4.376  1.00  0.00     0.179 C 
HETATM   23  C25 UNL     1      17.506   0.785   5.370  1.00  0.00    -0.056 C 
HETATM   24  C26 UNL     1      17.494   1.630   6.615  1.00  0.00     0.046 C 
HETATM   25  C27 UNL     1      16.567  -0.152   5.143  1.00  0.00    -0.004 C 
HETATM   26  C28 UNL     1      16.539  -1.001   3.892  1.00  0.00     0.150 C 
HETATM   27  C29 UNL     1      15.103  -1.310   3.495  1.00  0.00     0.270 C 
HETATM   28  O4  UNL     1      14.232  -0.461   3.363  1.00  0.00    -0.264 OA
HETATM   29  O5  UNL     1      14.939  -2.653   3.342  1.00  0.00    -0.315 OA
HETATM   30  C30 UNL     1      17.290  -0.353   2.701  1.00  0.00     0.128 C 
HETATM   31  O7  UNL     1      14.501  -5.713   2.659  1.00  0.00    -0.347 OA
HETATM   32  C31 UNL     1      15.392  -5.428   4.932  1.00  0.00     0.210 C 
HETATM   33  C32 UNL     1      15.110  -6.068   6.305  1.00  0.00     0.172 C 
HETATM   34  C37 UNL     1      14.598  -7.527   6.155  1.00  0.00     0.047 C 
HETATM   35  C38 UNL     1      15.739  -8.525   6.378  1.00  0.00     0.015 C 
ENDROOT
BRANCH  32  36
HETATM   36  O8  UNL     1      16.507  -6.132   4.345  1.00  0.00    -0.387 OA
HETATM   37  H42 UNL     1      17.305  -5.881   4.840  1.00  0.00     0.210 HD
ENDBRANCH  32  36
BRANCH   1  38
HETATM   38  C3  UNL     1      12.890  -8.883   4.800  1.00  0.00    -0.059 C 
HETATM   39  C2  UNL     1      11.826  -8.916   3.966  1.00  0.00    -0.026 C 
HETATM   40  C1  UNL     1      10.765  -9.967   3.888  1.00  0.00     0.036 C 
HETATM   41  C4  UNL     1      13.190 -10.001   5.764  1.00  0.00     0.046 C 
ENDBRANCH   1  38
BRANCH  33  42
HETATM   42  O9  UNL     1      14.126  -5.270   7.001  1.00  0.00    -0.312 OA
BRANCH  42  43
HETATM   43  C33 UNL     1      13.748  -5.726   8.228  1.00  0.00     0.262 C 
HETATM   44  O10 UNL     1      14.480  -5.787   9.208  1.00  0.00    -0.265 OA
BRANCH  43  45
HETATM   45  C34 UNL     1      12.312  -6.210   8.224  1.00  0.00     0.077 C 
HETATM   46  C35 UNL     1      11.690  -6.148   9.616  1.00  0.00     0.020 C 
HETATM   47  C36 UNL     1      11.502  -5.413   7.209  1.00  0.00     0.020 C 
ENDBRANCH  43  45
ENDBRANCH  42  43
ENDBRANCH  33  42
BRANCH  30  48
HETATM   48  O6  UNL     1      16.574   0.673   2.021  1.00  0.00    -0.381 OA
HETATM   49  H40 UNL     1      15.747   0.867   2.503  1.00  0.00     0.211 HD
ENDBRANCH  30  48
BRANCH  22  50
HETATM   50  O3  UNL     1      19.864   1.026   5.056  1.00  0.00    -0.389 OA
HETATM   51  H34 UNL     1      20.201   0.123   4.893  1.00  0.00     0.210 HD
ENDBRANCH  22  50
TORSDOF 7
ENDMDL
