MODEL 1
REMARK minimizedAffinity -7.25019932
REMARK CNNscore 0.447025716
REMARK CNNaffinity 6.84757996
REMARK  14 active torsions:
REMARK  status: ('A' for Active; 'I' for Inactive)
REMARK    1  A    between atoms: C2_2  and  C3_3 
REMARK    2  A    between atoms: C2_2  and  C35_44 
REMARK    3  A    between atoms: C3_3  and  C4_4 
REMARK    4  A    between atoms: C4_4  and  C5_5 
REMARK    5  A    between atoms: C5_5  and  C6_6 
REMARK    6  A    between atoms: C5_5  and  C7_9 
REMARK    7  A    between atoms: C6_6  and  O2_8 
REMARK    8  A    between atoms: C28_31  and  O4_32 
REMARK    9  A    between atoms: O4_32  and  C29_33 
REMARK   10  A    between atoms: C30_35  and  C31_36 
REMARK   11  A    between atoms: C31_36  and  O6_37 
REMARK   12  A    between atoms: C32_38  and  O7_39 
REMARK   13  A    between atoms: C33_40  and  O8_41 
REMARK   14  A    between atoms: C34_42  and  O9_43 
ROOT
HETATM    1  C7  UNL     1       0.332  50.540 -13.206  1.00  0.00     0.009 C 
HETATM    2  C8  UNL     1       1.280  49.336 -12.980  1.00  0.00     0.007 C 
HETATM    3  C9  UNL     1       2.286  49.756 -11.886  1.00  0.00     0.015 C 
HETATM    4  C10 UNL     1       1.729  51.057 -11.274  1.00  0.00    -0.010 C 
HETATM    5  C11 UNL     1       0.687  50.644 -10.189  1.00  0.00     0.021 C 
HETATM    6  C12 UNL     1       2.674  52.050 -10.585  1.00  0.00    -0.039 C 
HETATM    7  C13 UNL     1       2.359  53.377 -10.581  1.00  0.00    -0.066 C 
HETATM    8  C14 UNL     1       1.091  53.899 -11.274  1.00  0.00     0.036 C 
HETATM    9  C15 UNL     1       0.273  52.913 -12.132  1.00  0.00     0.015 C 
HETATM   10  C16 UNL     1       1.122  51.722 -12.572  1.00  0.00    -0.028 C 
HETATM   11  C17 UNL     1       2.205  52.231 -13.573  1.00  0.00     0.016 C 
HETATM   12  C18 UNL     1       3.294  54.441  -9.946  1.00  0.00    -0.015 C 
HETATM   13  C19 UNL     1       4.065  55.070 -11.134  1.00  0.00     0.020 C 
HETATM   14  C20 UNL     1       2.488  55.536  -9.207  1.00  0.00     0.021 C 
HETATM   15  C21 UNL     1       3.366  56.553  -8.496  1.00  0.00     0.080 C 
HETATM   16  C22 UNL     1       4.302  55.894  -7.515  1.00  0.00     0.135 C 
HETATM   17  O3  UNL     1       4.473  56.396  -6.400  1.00  0.00    -0.297 OA
HETATM   18  C23 UNL     1       5.117  54.681  -7.997  1.00  0.00     0.018 C 
HETATM   19  C24 UNL     1       6.380  55.206  -8.698  1.00  0.00     0.023 C 
HETATM   20  C25 UNL     1       5.583  53.905  -6.737  1.00  0.00     0.023 C 
HETATM   21  C26 UNL     1       4.209  53.750  -8.870  1.00  0.00     0.016 C 
HETATM   22  C27 UNL     1       4.944  52.554  -9.508  1.00  0.00     0.043 C 
HETATM   23  C28 UNL     1       3.932  51.482  -9.942  1.00  0.00     0.155 C 
ENDROOT
BRANCH  23  24
HETATM   24  O4  UNL     1       3.554  50.762  -8.761  1.00  0.00    -0.349 OA
BRANCH  24  25
HETATM   25  C29 UNL     1       4.531  49.791  -8.354  1.00  0.00     0.292 C 
HETATM   26  O5  UNL     1       5.370  50.420  -7.384  1.00  0.00    -0.348 OA
HETATM   27  C30 UNL     1       6.708  49.927  -7.252  1.00  0.00     0.179 C 
HETATM   28  C32 UNL     1       6.898  48.491  -7.766  1.00  0.00     0.180 C 
HETATM   29  C33 UNL     1       6.360  48.288  -9.191  1.00  0.00     0.183 C 
HETATM   30  C34 UNL     1       5.322  49.342  -9.596  1.00  0.00     0.204 C 
BRANCH  27  31
HETATM   31  C31 UNL     1       7.683  50.929  -7.888  1.00  0.00     0.198 C 
BRANCH  31  32
HETATM   32  O6  UNL     1       8.895  50.290  -8.263  1.00  0.00    -0.398 OA
HETATM   33  H45 UNL     1       9.423  50.951  -8.748  1.00  0.00     0.209 HD
ENDBRANCH  31  32
ENDBRANCH  27  31
BRANCH  28  34
HETATM   34  O7  UNL     1       6.160  47.614  -6.888  1.00  0.00    -0.390 OA
HETATM   35  H47 UNL     1       6.577  46.733  -6.952  1.00  0.00     0.210 HD
ENDBRANCH  28  34
BRANCH  29  36
HETATM   36  O8  UNL     1       7.438  48.297 -10.137  1.00  0.00    -0.390 OA
HETATM   37  H49 UNL     1       7.131  47.803 -10.920  1.00  0.00     0.210 HD
ENDBRANCH  29  36
BRANCH  30  38
HETATM   38  O9  UNL     1       4.472  48.760 -10.599  1.00  0.00    -0.388 OA
HETATM   39  H51 UNL     1       4.803  49.052 -11.469  1.00  0.00     0.210 HD
ENDBRANCH  30  38
ENDBRANCH  24  25
ENDBRANCH  23  24
BRANCH   1  40
HETATM   40  C5  UNL     1      -0.247  50.715 -14.640  1.00  0.00     0.089 C 
BRANCH  40  41
HETATM   41  C4  UNL     1       0.546  50.088 -15.809  1.00  0.00     0.020 C 
BRANCH  41  42
HETATM   42  C3  UNL     1       0.137  50.558 -17.220  1.00  0.00     0.034 C 
BRANCH  42  43
HETATM   43  C2  UNL     1       0.680  51.879 -17.737  1.00  0.00    -0.086 C 
HETATM   44  C1  UNL     1       1.671  52.568 -17.141  1.00  0.00     0.014 C 
BRANCH  43  45
HETATM   45  C35 UNL     1       0.063  52.418 -19.027  1.00  0.00     0.005 C 
HETATM   46  C36 UNL     1       1.020  53.338 -19.794  1.00  0.00     0.014 C 
HETATM   47  C37 UNL     1      -0.438  51.285 -19.928  1.00  0.00     0.014 C 
ENDBRANCH  43  45
ENDBRANCH  42  43
ENDBRANCH  41  42
ENDBRANCH  40  41
BRANCH  40  48
HETATM   48  C6  UNL     1      -1.667  50.176 -14.629  1.00  0.00     0.144 C 
HETATM   49  O1  UNL     1      -1.992  49.015 -14.443  1.00  0.00    -0.650 OA
BRANCH  48  50
HETATM   50  O2  UNL     1      -2.600  51.108 -14.910  1.00  0.00    -0.776 OA
HETATM   51  H8  UNL     1      -3.447  50.611 -14.897  1.00  0.00     0.167 HD
ENDBRANCH  48  50
ENDBRANCH  40  48
ENDBRANCH   1  40
TORSDOF 14
ENDMDL
