MODEL 1
REMARK minimizedAffinity -9.40240669
REMARK  6 active torsions:
REMARK  status: ('A' for Active; 'I' for Inactive)
REMARK    1  A    between atoms: C2_2  and  C4_4 
REMARK    2  A    between atoms: C4_4  and  O1_5 
REMARK    3  A    between atoms: C4_4  and  C5_6 
REMARK    4  A    between atoms: C5_6  and  C6_7 
REMARK    5  A    between atoms: C6_7  and  C7_8 
REMARK    6  A    between atoms: C7_8  and  C9_10 
ROOT
HETATM    1  C9  UNL     1       1.165   7.707  11.849  1.00  0.00    -0.001 C 
HETATM    2  C10 UNL     1       0.602   6.975  10.597  1.00  0.00     0.007 C 
HETATM    3  C11 UNL     1      -0.764   6.380  10.982  1.00  0.00     0.024 C 
HETATM    4  C12 UNL     1      -1.058   6.965  12.344  1.00  0.00     0.092 C 
HETATM    5  C13 UNL     1      -1.757   8.347  12.238  1.00  0.00     0.272 C 
HETATM    6  O2  UNL     1      -1.694   9.148  11.321  1.00  0.00    -0.264 OA
HETATM    7  O3  UNL     1      -2.496   8.553  13.388  1.00  0.00    -0.305 OA
HETATM    8  C14 UNL     1      -2.352   7.399  14.249  1.00  0.00     0.113 C 
HETATM    9  C15 UNL     1      -1.079   7.654  15.119  1.00  0.00     0.043 C 
HETATM   10  C16 UNL     1       0.177   8.026  14.281  1.00  0.00     0.014 C 
HETATM   11  C17 UNL     1       0.341   7.114  13.036  1.00  0.00    -0.020 C 
HETATM   12  C18 UNL     1       0.929   5.766  13.508  1.00  0.00     0.017 C 
HETATM   13  C19 UNL     1      -2.043   6.328  13.244  1.00  0.00     0.137 A 
HETATM   14  O4  UNL     1      -1.961   4.965  13.617  1.00  0.00    -0.364 OA
HETATM   15  C20 UNL     1      -3.078   5.325  12.781  1.00  0.00     0.162 A 
HETATM   16  C21 UNL     1      -4.418   5.278  13.450  1.00  0.00     0.042 C 
HETATM   17  C22 UNL     1      -4.784   6.671  14.007  1.00  0.00     0.014 C 
HETATM   18  C23 UNL     1      -6.279   6.849  14.440  1.00  0.00     0.018 C 
HETATM   19  C24 UNL     1      -7.213   6.605  13.232  1.00  0.00     0.023 C 
HETATM   20  C25 UNL     1      -6.731   5.937  15.588  1.00  0.00     0.023 C 
HETATM   21  C26 UNL     1      -6.499   8.305  14.884  1.00  0.00     0.135 C 
HETATM   22  O5  UNL     1      -7.620   8.739  15.154  1.00  0.00    -0.297 OA
HETATM   23  C27 UNL     1      -5.287   9.204  14.965  1.00  0.00     0.080 C 
HETATM   24  C28 UNL     1      -4.182   8.484  15.725  1.00  0.00     0.020 C 
HETATM   25  C29 UNL     1      -3.695   7.164  15.047  1.00  0.00    -0.004 C 
HETATM   26  C30 UNL     1      -3.430   6.143  16.186  1.00  0.00     0.019 C 
ENDROOT
BRANCH   1  27
HETATM   27  C7  UNL     1       2.721   7.809  11.856  1.00  0.00    -0.014 C 
HETATM   28  C8  UNL     1       3.323   9.218  11.927  1.00  0.00     0.010 C 
BRANCH  27  29
HETATM   29  C6  UNL     1       3.344   6.999  10.699  1.00  0.00     0.007 C 
BRANCH  29  30
HETATM   30  C5  UNL     1       3.899   7.821   9.522  1.00  0.00     0.036 C 
BRANCH  30  31
HETATM   31  C4  UNL     1       2.861   8.191   8.450  1.00  0.00     0.146 C 
BRANCH  31  32
HETATM   32  C2  UNL     1       2.469   7.014   7.578  1.00  0.00    -0.065 C 
HETATM   33  C1  UNL     1       1.745   7.187   6.458  1.00  0.00     0.016 C 
HETATM   34  C3  UNL     1       2.920   5.638   7.989  1.00  0.00     0.045 C 
ENDBRANCH  31  32
BRANCH  31  35
HETATM   35  O1  UNL     1       3.348   9.242   7.622  1.00  0.00    -0.391 OA
HETATM   36  H7  UNL     1       4.226   8.984   7.302  1.00  0.00     0.210 HD
ENDBRANCH  31  35
ENDBRANCH  30  31
ENDBRANCH  29  30
ENDBRANCH  27  29
ENDBRANCH   1  27
TORSDOF 6
ENDMDL
