MODEL 1
REMARK minimizedAffinity -8.73581123
REMARK CNNscore 0.590127885
REMARK CNNaffinity 7.57222366
REMARK  15 active torsions:
REMARK  status: ('A' for Active; 'I' for Inactive)
REMARK    1  A    between atoms: C14_15  and  O2_16 
REMARK    2  A    between atoms: C14_15  and  C15_17 
REMARK    3  A    between atoms: C15_17  and  C16_19 
REMARK    4  A    between atoms: C16_19  and  O4_20 
REMARK    5  A    between atoms: O4_20  and  C17_21 
REMARK    6  A    between atoms: C17_21  and  C18_23 
REMARK    7  A    between atoms: C18_23  and  C19_24 
REMARK    8  A    between atoms: C19_24  and  C20_25 
REMARK       I    between atoms: C20_25  and  N1_27 
REMARK    9  A    between atoms: N1_27  and  C21_28 
REMARK   10  A    between atoms: C21_28  and  C22_29 
REMARK   11  A    between atoms: C22_29  and  C23_30 
REMARK   12  A    between atoms: C23_30  and  C24_31 
REMARK   13  A    between atoms: C24_31  and  C25_32 
REMARK   14  A    between atoms: C25_32  and  C26_33 
REMARK   15  A    between atoms: C26_33  and  O8_35 
ROOT
HETATM    1  C1  UNL     1       2.080   5.109  10.072  1.00  0.00     0.020 C 
HETATM    2  C2  UNL     1       1.659   6.570  10.350  1.00  0.00    -0.016 C 
HETATM    3  C3  UNL     1       0.951   7.136   9.080  1.00  0.00     0.022 C 
HETATM    4  C4  UNL     1       1.899   7.454   7.933  1.00  0.00     0.084 C 
HETATM    5  C5  UNL     1       2.986   8.387   8.395  1.00  0.00     0.149 C 
HETATM    6  O1  UNL     1       3.510   9.207   7.646  1.00  0.00    -0.293 OA
HETATM    7  C6  UNL     1       3.490   8.235   9.779  1.00  0.00     0.053 C 
HETATM    8  C7  UNL     1       2.921   7.382  10.649  1.00  0.00    -0.068 C 
HETATM    9  C8  UNL     1       3.548   7.169  12.003  1.00  0.00     0.035 C 
HETATM   10  C9  UNL     1       2.538   7.330  13.133  1.00  0.00     0.010 C 
HETATM   11  C10 UNL     1       1.303   6.433  12.946  1.00  0.00    -0.004 C 
HETATM   12  C11 UNL     1       0.296   6.421  14.147  1.00  0.00     0.002 C 
HETATM   13  C12 UNL     1       0.516   7.476  15.241  1.00  0.00     0.009 C 
HETATM   14  C13 UNL     1      -0.268   8.694  14.781  1.00  0.00     0.047 C 
HETATM   15  C14 UNL     1      -1.462   8.156  13.976  1.00  0.00     0.128 C 
HETATM   16  C27 UNL     1      -1.224   6.598  13.820  1.00  0.00    -0.002 C 
HETATM   17  C28 UNL     1      -2.031   5.814  14.895  1.00  0.00     0.019 C 
HETATM   18  C29 UNL     1      -1.659   6.020  12.454  1.00  0.00     0.013 C 
HETATM   19  C30 UNL     1      -0.559   5.759  11.431  1.00  0.00     0.007 C 
HETATM   20  C31 UNL     1       0.653   6.685  11.566  1.00  0.00     0.002 C 
ENDROOT
BRANCH  15  21
HETATM   21  O2  UNL     1      -1.393   8.824  12.701  1.00  0.00    -0.381 OA
HETATM   22  H19 UNL     1      -2.275   8.731  12.284  1.00  0.00     0.211 HD
ENDBRANCH  15  21
BRANCH  15  23
HETATM   23  C15 UNL     1      -2.869   8.539  14.498  1.00  0.00     0.185 C 
HETATM   24  O3  UNL     1      -3.073   8.553  15.721  1.00  0.00    -0.292 OA
BRANCH  23  25
HETATM   25  C16 UNL     1      -3.982   8.852  13.500  1.00  0.00     0.260 C 
BRANCH  25  26
HETATM   26  O4  UNL     1      -4.857   7.747  13.266  1.00  0.00    -0.314 OA
BRANCH  26  27
HETATM   27  C17 UNL     1      -5.885   7.635  14.147  1.00  0.00     0.259 C 
HETATM   28  O5  UNL     1      -6.491   8.579  14.636  1.00  0.00    -0.265 OA
BRANCH  27  29
HETATM   29  C18 UNL     1      -6.199   6.184  14.394  1.00  0.00     0.120 C 
BRANCH  29  30
HETATM   30  C19 UNL     1      -7.184   5.655  13.358  1.00  0.00     0.112 C 
BRANCH  30  31
HETATM   31  C20 UNL     1      -7.260   4.145  13.388  1.00  0.00     0.217 C 
HETATM   32  O6  UNL     1      -7.646   3.506  14.358  1.00  0.00    -0.274 OA
HETATM   33  N1  UNL     1      -6.840   3.565  12.209  1.00  0.00    -0.361 N 
HETATM   34  H26 UNL     1      -6.436   4.152  11.490  1.00  0.00     0.162 HD
BRANCH  33  35
HETATM   35  C21 UNL     1      -6.753   2.126  12.056  1.00  0.00     0.122 C 
BRANCH  35  36
HETATM   36  C22 UNL     1      -5.497   1.729  11.287  1.00  0.00     0.020 C 
BRANCH  36  37
HETATM   37  C23 UNL     1      -4.468   2.855  11.138  1.00  0.00     0.002 C 
BRANCH  37  38
HETATM   38  C24 UNL     1      -3.142   2.606  11.864  1.00  0.00     0.010 C 
BRANCH  38  39
HETATM   39  C25 UNL     1      -2.455   1.308  11.439  1.00  0.00     0.110 C 
BRANCH  39  40
HETATM   40  C26 UNL     1      -1.113   1.575  10.810  1.00  0.00     0.139 C 
HETATM   41  O7  UNL     1      -0.175   2.186  11.290  1.00  0.00    -0.650 OA
BRANCH  40  42
HETATM   42  O8  UNL     1      -1.031   1.061   9.567  1.00  0.00    -0.776 OA
HETATM   43  H37 UNL     1      -0.125   1.295   9.275  1.00  0.00     0.167 HD
ENDBRANCH  40  42
ENDBRANCH  39  40
ENDBRANCH  38  39
ENDBRANCH  37  38
ENDBRANCH  36  37
ENDBRANCH  35  36
ENDBRANCH  33  35
ENDBRANCH  30  31
ENDBRANCH  29  30
ENDBRANCH  27  29
ENDBRANCH  26  27
ENDBRANCH  25  26
ENDBRANCH  23  25
ENDBRANCH  15  23
TORSDOF 15
ENDMDL
