MODEL 1
REMARK minimizedAffinity -7.63124895
REMARK CNNscore 0.871502757
REMARK CNNaffinity 6.96472979
REMARK  9 active torsions:
REMARK  status: ('A' for Active; 'I' for Inactive)
REMARK    1  A    between atoms: C2_2  and  C30_35 
REMARK    2  A    between atoms: C3_3  and  C4_4 
REMARK    3  A    between atoms: C4_4  and  O1_5 
REMARK    4  A    between atoms: C4_4  and  C5_6 
REMARK    5  A    between atoms: C5_6  and  C6_7 
REMARK    6  A    between atoms: C6_7  and  C8_9 
REMARK    7  A    between atoms: C10_11  and  O2_12 
REMARK    8  A    between atoms: C29_33  and  O5_34 
REMARK    9  A    between atoms: C30_35  and  O7_37 
ROOT
HETATM    1  C8  UNL     1      -1.920  52.338 -11.144  1.00  0.00     0.001 C 
HETATM    2  C9  UNL     1      -1.071  52.427 -12.444  1.00  0.00     0.038 C 
HETATM    3  C10 UNL     1       0.215  53.197 -12.082  1.00  0.00     0.132 C 
HETATM    4  C11 UNL     1       0.289  53.121 -10.533  1.00  0.00     0.017 C 
HETATM    5  C12 UNL     1       0.868  51.723 -10.133  1.00  0.00     0.023 C 
HETATM    6  C13 UNL     1       1.129  54.144  -9.759  1.00  0.00    -0.029 C 
HETATM    7  C14 UNL     1       0.888  54.386  -8.442  1.00  0.00     0.002 C 
HETATM    8  C15 UNL     1      -0.351  53.753  -7.814  1.00  0.00     0.157 C 
HETATM    9  O3  UNL     1      -0.547  53.812  -6.602  1.00  0.00    -0.293 OA
HETATM   10  C16 UNL     1      -1.389  53.042  -8.680  1.00  0.00     0.094 C 
HETATM   11  C17 UNL     1      -1.223  53.338 -10.169  1.00  0.00    -0.019 C 
HETATM   12  C18 UNL     1      -1.715  54.791 -10.429  1.00  0.00     0.017 C 
HETATM   13  C19 UNL     1       1.773  55.333  -7.579  1.00  0.00    -0.008 C 
HETATM   14  C20 UNL     1       0.967  56.646  -7.461  1.00  0.00     0.021 C 
HETATM   15  C21 UNL     1       2.075  54.773  -6.160  1.00  0.00     0.022 C 
HETATM   16  C22 UNL     1       3.052  55.616  -5.351  1.00  0.00     0.080 C 
HETATM   17  C23 UNL     1       4.356  55.805  -6.078  1.00  0.00     0.135 C 
HETATM   18  O4  UNL     1       5.423  55.649  -5.479  1.00  0.00    -0.297 OA
HETATM   19  C24 UNL     1       4.293  56.293  -7.532  1.00  0.00     0.018 C 
HETATM   20  C25 UNL     1       4.117  57.818  -7.527  1.00  0.00     0.023 C 
HETATM   21  C26 UNL     1       5.672  55.998  -8.179  1.00  0.00     0.023 C 
HETATM   22  C27 UNL     1       3.181  55.487  -8.288  1.00  0.00     0.016 C 
HETATM   23  C28 UNL     1       2.994  55.915  -9.754  1.00  0.00     0.043 C 
HETATM   24  C29 UNL     1       2.205  54.863 -10.534  1.00  0.00     0.149 C 
ENDROOT
BRANCH   1  25
HETATM   25  C6  UNL     1      -3.460  52.329 -11.393  1.00  0.00    -0.011 C 
HETATM   26  C7  UNL     1      -4.243  53.536 -10.864  1.00  0.00     0.010 C 
BRANCH  25  27
HETATM   27  C5  UNL     1      -4.091  50.990 -10.933  1.00  0.00     0.040 C 
BRANCH  27  28
HETATM   28  C4  UNL     1      -3.780  49.793 -11.846  1.00  0.00     0.142 C 
BRANCH  28  29
HETATM   29  C3  UNL     1      -4.842  48.730 -11.731  1.00  0.00     0.018 C 
HETATM   30  C2  UNL     1      -5.961  48.719 -10.973  1.00  0.00     0.010 C 
HETATM   31  C1  UNL     1      -6.360  49.782  -9.991  1.00  0.00     0.055 C 
BRANCH  30  32
HETATM   32  C30 UNL     1      -6.908  47.575 -11.046  1.00  0.00     0.171 C 
HETATM   33  O6  UNL     1      -6.663  46.486 -11.537  1.00  0.00    -0.646 OA
BRANCH  32  34
HETATM   34  O7  UNL     1      -8.116  47.829 -10.514  1.00  0.00    -0.773 OA
HETATM   35  H44 UNL     1      -8.605  46.992 -10.653  1.00  0.00     0.167 HD
ENDBRANCH  32  34
ENDBRANCH  30  32
ENDBRANCH  28  29
BRANCH  28  36
HETATM   36  O1  UNL     1      -3.647  50.210 -13.196  1.00  0.00    -0.392 OA
HETATM   37  H6  UNL     1      -3.471  49.410 -13.722  1.00  0.00     0.210 HD
ENDBRANCH  28  36
ENDBRANCH  27  28
ENDBRANCH  25  27
ENDBRANCH   1  25
BRANCH   3  38
HETATM   38  O2  UNL     1       1.326  52.615 -12.746  1.00  0.00    -0.394 OA
HETATM   39  H17 UNL     1       2.134  53.024 -12.366  1.00  0.00     0.210 HD
ENDBRANCH   3  38
BRANCH  24  40
HETATM   40  O5  UNL     1       3.097  53.887 -11.064  1.00  0.00    -0.391 OA
HETATM   41  H43 UNL     1       3.588  53.496 -10.317  1.00  0.00     0.210 HD
ENDBRANCH  24  40
TORSDOF 9
ENDMDL
