MODEL 1
REMARK minimizedAffinity -9.46041775
REMARK  7 active torsions:
REMARK  status: ('A' for Active; 'I' for Inactive)
REMARK    1  A    between atoms: O1_2  and  C2_3 
REMARK    2  A    between atoms: C2_3  and  C3_5 
REMARK    3  A    between atoms: C5_7  and  C6_8 
REMARK    4  A    between atoms: C6_8  and  C7_9 
REMARK    5  A    between atoms: C7_9  and  C8_10 
REMARK    6  A    between atoms: C8_10  and  C10_12 
REMARK    7  A    between atoms: C17_19  and  O3_20 
ROOT
HETATM    1  C10 UNL     1      -3.658  51.042 -23.860  1.00  0.00    -0.002 C 
HETATM    2  C11 UNL     1      -2.977  51.366 -25.198  1.00  0.00     0.007 C 
HETATM    3  C12 UNL     1      -3.776  50.590 -26.226  1.00  0.00     0.015 C 
HETATM    4  C13 UNL     1      -3.967  49.197 -25.584  1.00  0.00    -0.005 C 
HETATM    5  C14 UNL     1      -2.636  48.395 -25.696  1.00  0.00     0.021 C 
HETATM    6  C15 UNL     1      -5.095  48.419 -26.305  1.00  0.00     0.002 C 
HETATM    7  C16 UNL     1      -6.260  48.015 -25.737  1.00  0.00    -0.032 C 
HETATM    8  C17 UNL     1      -6.579  48.455 -24.316  1.00  0.00     0.149 C 
HETATM    9  C18 UNL     1      -5.801  49.692 -23.865  1.00  0.00     0.047 C 
HETATM   10  C19 UNL     1      -4.265  49.577 -24.061  1.00  0.00    -0.026 C 
HETATM   11  C20 UNL     1      -3.713  48.516 -23.081  1.00  0.00     0.016 C 
HETATM   12  C21 UNL     1      -7.355  47.153 -26.463  1.00  0.00    -0.012 C 
HETATM   13  C22 UNL     1      -7.801  46.025 -25.499  1.00  0.00     0.021 C 
HETATM   14  C23 UNL     1      -8.566  48.069 -26.786  1.00  0.00     0.021 C 
HETATM   15  C24 UNL     1      -9.657  47.388 -27.598  1.00  0.00     0.080 C 
HETATM   16  C25 UNL     1      -9.106  46.801 -28.875  1.00  0.00     0.135 C 
HETATM   17  O4  UNL     1      -9.662  47.035 -29.948  1.00  0.00    -0.297 OA
HETATM   18  C26 UNL     1      -7.903  45.855 -28.756  1.00  0.00     0.018 C 
HETATM   19  C27 UNL     1      -8.403  44.485 -28.247  1.00  0.00     0.023 C 
HETATM   20  C28 UNL     1      -7.340  45.590 -30.176  1.00  0.00     0.023 C 
HETATM   21  C29 UNL     1      -6.815  46.515 -27.804  1.00  0.00     0.020 C 
HETATM   22  C30 UNL     1      -6.012  47.571 -28.572  1.00  0.00     0.090 C 
HETATM   23  C31 UNL     1      -4.889  48.155 -27.767  1.00  0.00     0.157 C 
HETATM   24  O5  UNL     1      -3.855  48.485 -28.346  1.00  0.00    -0.293 OA
ENDROOT
BRANCH   1  25
HETATM   25  C8  UNL     1      -2.745  51.351 -22.636  1.00  0.00    -0.014 C 
HETATM   26  C9  UNL     1      -3.468  51.085 -21.300  1.00  0.00     0.010 C 
BRANCH  25  27
HETATM   27  C7  UNL     1      -1.395  50.591 -22.631  1.00  0.00     0.008 C 
BRANCH  27  28
HETATM   28  C6  UNL     1      -0.142  51.469 -22.525  1.00  0.00     0.028 C 
BRANCH  28  29
HETATM   29  C5  UNL     1      -0.245  52.656 -23.444  1.00  0.00    -0.014 C 
HETATM   30  C3  UNL     1       0.327  52.804 -24.658  1.00  0.00     0.009 C 
HETATM   31  C4  UNL     1       1.222  51.800 -25.329  1.00  0.00     0.054 C 
BRANCH  30  32
HETATM   32  C2  UNL     1       0.106  54.042 -25.475  1.00  0.00     0.288 C 
HETATM   33  O2  UNL     1       0.700  55.092 -25.266  1.00  0.00    -0.260 OA
BRANCH  32  34
HETATM   34  O1  UNL     1      -0.828  53.848 -26.442  1.00  0.00    -0.323 OA
HETATM   35  C1  UNL     1      -0.310  53.924 -27.770  1.00  0.00     0.213 C 
ENDBRANCH  32  34
ENDBRANCH  30  32
ENDBRANCH  28  29
ENDBRANCH  27  28
ENDBRANCH  25  27
ENDBRANCH   1  25
BRANCH   8  36
HETATM   36  O3  UNL     1      -6.346  47.370 -23.430  1.00  0.00    -0.391 OA
HETATM   37  H25 UNL     1      -6.573  47.668 -22.534  1.00  0.00     0.210 HD
ENDBRANCH   8  36
TORSDOF 7
ENDMDL
