MODEL 1
REMARK minimizedAffinity -9.94830608
REMARK CNNscore 0.600173414
REMARK CNNaffinity 7.11679411
REMARK  12 active torsions:
REMARK  status: ('A' for Active; 'I' for Inactive)
REMARK    1  A    between atoms: C4_5  and  C5_6 
REMARK    2  A    between atoms: C5_6  and  O2_7 
REMARK    3  A    between atoms: C5_6  and  C6_8 
REMARK    4  A    between atoms: C6_8  and  O3_10 
REMARK    5  A    between atoms: C6_8  and  C8_11 
REMARK    6  A    between atoms: C11_14  and  O4_15 
REMARK    7  A    between atoms: C17_22  and  O6_23 
REMARK    8  A    between atoms: O6_23  and  C18_24 
REMARK    9  A    between atoms: C18_24  and  C19_25 
REMARK   10  A    between atoms: C19_25  and  C20_26 
REMARK   11  A    between atoms: C35_41  and  C36_42 
REMARK   12  A    between atoms: C36_42  and  O7_43 
ROOT
HETATM    1  C8  UNL     1       2.076   7.661  14.354  1.00  0.00     0.034 C 
HETATM    2  C9  UNL     1       2.115   8.429  15.711  1.00  0.00     0.012 C 
HETATM    3  C10 UNL     1       0.661   8.767  16.101  1.00  0.00     0.044 C 
HETATM    4  C11 UNL     1      -0.164   7.794  15.261  1.00  0.00     0.089 C 
HETATM    5  C12 UNL     1      -1.645   7.973  15.055  1.00  0.00    -0.037 C 
HETATM    6  C13 UNL     1      -2.329   9.030  15.511  1.00  0.00     0.057 C 
HETATM    7  C14 UNL     1      -3.749   9.240  15.164  1.00  0.00     0.154 C 
HETATM    8  O5  UNL     1      -4.331  10.188  15.690  1.00  0.00    -0.293 OA
HETATM    9  C15 UNL     1      -4.398   8.317  14.131  1.00  0.00     0.071 C 
HETATM   10  C16 UNL     1      -5.928   8.352  14.309  1.00  0.00     0.045 C 
HETATM   11  C17 UNL     1      -6.374   7.707  15.622  1.00  0.00     0.122 C 
HETATM   12  C26 UNL     1      -5.847   6.274  15.729  1.00  0.00     0.033 C 
HETATM   13  C27 UNL     1      -4.335   6.189  15.515  1.00  0.00     0.013 C 
HETATM   14  C28 UNL     1      -3.835   6.870  14.200  1.00  0.00    -0.026 C 
HETATM   15  C29 UNL     1      -4.360   6.040  13.000  1.00  0.00     0.016 C 
HETATM   16  C30 UNL     1      -2.260   6.861  14.208  1.00  0.00     0.026 C 
HETATM   17  C31 UNL     1      -1.550   6.854  12.829  1.00  0.00     0.011 C 
HETATM   18  C32 UNL     1      -0.003   6.770  12.945  1.00  0.00     0.014 C 
HETATM   19  C33 UNL     1       0.582   7.855  13.884  1.00  0.00    -0.002 C 
HETATM   20  C34 UNL     1       0.394   9.229  13.177  1.00  0.00     0.019 C 
ENDROOT
BRANCH   1  21
HETATM   21  C6  UNL     1       3.267   7.913  13.358  1.00  0.00     0.087 C 
HETATM   22  C7  UNL     1       4.663   7.963  13.995  1.00  0.00     0.049 C 
BRANCH  21  23
HETATM   23  C5  UNL     1       3.292   6.953  12.103  1.00  0.00     0.181 C 
BRANCH  23  24
HETATM   24  C4  UNL     1       2.684   7.467  10.781  1.00  0.00     0.159 C 
HETATM   25  O1  UNL     1       3.587   8.308  10.052  1.00  0.00    -0.382 OA
HETATM   26  C3  UNL     1       3.355   8.157   8.648  1.00  0.00     0.173 C 
HETATM   27  C2  UNL     1       2.140   7.260   8.475  1.00  0.00     0.014 C 
HETATM   28  C1  UNL     1       0.850   8.080   8.366  1.00  0.00     0.012 C 
HETATM   29  C35 UNL     1       2.194   6.423   9.762  1.00  0.00     0.046 C 
BRANCH  29  30
HETATM   30  C36 UNL     1       3.113   5.206   9.590  1.00  0.00     0.172 C 
BRANCH  30  31
HETATM   31  O7  UNL     1       2.558   4.084  10.270  1.00  0.00    -0.400 OA
HETATM   32  H52 UNL     1       3.173   3.345  10.147  1.00  0.00     0.209 HD
ENDBRANCH  30  31
ENDBRANCH  29  30
ENDBRANCH  23  24
BRANCH  23  33
HETATM   33  O2  UNL     1       4.635   6.469  11.921  1.00  0.00    -0.390 OA
HETATM   34  H9  UNL     1       4.978   6.348  12.828  1.00  0.00     0.210 HD
ENDBRANCH  23  33
ENDBRANCH  21  23
BRANCH  21  35
HETATM   35  O3  UNL     1       3.020   9.226  12.774  1.00  0.00    -0.387 OA
HETATM   36  H13 UNL     1       3.862   9.564  12.411  1.00  0.00     0.210 HD
ENDBRANCH  21  35
ENDBRANCH   1  21
BRANCH   4  37
HETATM   37  O4  UNL     1      -0.045   6.531  15.947  1.00  0.00    -0.384 OA
HETATM   38  H19 UNL     1       0.388   5.882  15.369  1.00  0.00     0.211 HD
ENDBRANCH   4  37
BRANCH  11  39
HETATM   39  O6  UNL     1      -7.806   7.715  15.646  1.00  0.00    -0.386 OA
BRANCH  39  40
HETATM   40  C18 UNL     1      -8.372   6.430  15.355  1.00  0.00     0.172 C 
BRANCH  40  41
HETATM   41  C19 UNL     1      -9.001   6.469  13.961  1.00  0.00     0.064 C 
BRANCH  41  42
HETATM   42  C20 UNL     1     -10.235   7.334  13.928  1.00  0.00    -0.056 A 
HETATM   43  C21 UNL     1     -10.309   8.500  14.706  1.00  0.00     0.007 A 
HETATM   44  C22 UNL     1     -11.475   9.270  14.718  1.00  0.00     0.001 A 
HETATM   45  C23 UNL     1     -12.576   8.887  13.949  1.00  0.00     0.000 A 
HETATM   46  C24 UNL     1     -12.510   7.728  13.178  1.00  0.00     0.001 A 
HETATM   47  C25 UNL     1     -11.348   6.957  13.164  1.00  0.00     0.007 A 
ENDBRANCH  41  42
ENDBRANCH  40  41
ENDBRANCH  39  40
ENDBRANCH  11  39
TORSDOF 12
ENDMDL
