MODEL 1
REMARK minimizedAffinity -9.57335091
REMARK CNNscore 0.661741316
REMARK CNNaffinity 7.21297121
REMARK  10 active torsions:
REMARK  status: ('A' for Active; 'I' for Inactive)
REMARK    1  A    between atoms: C19_21  and  O3_22 
REMARK    2  A    between atoms: C19_21  and  C20_23 
REMARK    3  A    between atoms: C20_23  and  C21_25 
REMARK    4  A    between atoms: C21_25  and  O5_26 
REMARK    5  A    between atoms: O5_26  and  C22_27 
REMARK    6  A    between atoms: C22_27  and  C23_29 
REMARK    7  A    between atoms: C23_29  and  C24_30 
REMARK    8  A    between atoms: C24_30  and  C25_31 
REMARK       I    between atoms: C25_31  and  N1_33 
REMARK    9  A    between atoms: N1_33  and  C26_34 
REMARK   10  A    between atoms: C26_34  and  C27_35 
ROOT
HETATM    1  C1  UNL     1       4.175   8.143   9.898  1.00  0.00     0.021 C 
HETATM    2  C2  UNL     1       2.815   7.409  10.076  1.00  0.00    -0.009 C 
HETATM    3  C3  UNL     1       3.102   5.964  10.568  1.00  0.00     0.022 C 
HETATM    4  C4  UNL     1       3.853   5.100   9.554  1.00  0.00     0.084 C 
HETATM    5  C5  UNL     1       3.232   5.154   8.183  1.00  0.00     0.149 C 
HETATM    6  O1  UNL     1       3.453   4.295   7.331  1.00  0.00    -0.293 OA
HETATM    7  C6  UNL     1       2.360   6.299   7.842  1.00  0.00     0.053 C 
HETATM    8  C7  UNL     1       2.167   7.323   8.693  1.00  0.00    -0.067 C 
HETATM    9  C8  UNL     1       1.204   8.420   8.341  1.00  0.00     0.035 C 
HETATM   10  C9  UNL     1       0.017   8.288   9.283  1.00  0.00     0.010 C 
HETATM   11  C10 UNL     1       0.416   8.467  10.759  1.00  0.00     0.003 C 
HETATM   12  C11 UNL     1       1.936   8.283  11.063  1.00  0.00     0.072 C 
HETATM   13  C12 UNL     1       2.155   8.049  12.557  1.00  0.00     0.133 C 
HETATM   14  O2  UNL     1       3.193   7.580  13.018  1.00  0.00    -0.297 OA
HETATM   15  C13 UNL     1       1.099   8.603  13.485  1.00  0.00     0.091 C 
HETATM   16  C14 UNL     1      -0.337   8.071  13.221  1.00  0.00     0.005 C 
HETATM   17  C15 UNL     1      -1.280   9.205  13.682  1.00  0.00     0.019 C 
HETATM   18  C16 UNL     1      -0.552   7.729  11.712  1.00  0.00     0.002 C 
HETATM   19  C17 UNL     1      -0.496   6.192  11.608  1.00  0.00     0.009 C 
HETATM   20  C18 UNL     1      -0.073   5.678  12.978  1.00  0.00     0.047 C 
HETATM   21  C19 UNL     1      -0.637   6.715  13.951  1.00  0.00     0.128 C 
ENDROOT
BRANCH  21  22
HETATM   22  O3  UNL     1       0.051   6.623  15.190  1.00  0.00    -0.381 OA
HETATM   23  H25 UNL     1      -0.169   7.401  15.734  1.00  0.00     0.211 HD
ENDBRANCH  21  22
BRANCH  21  24
HETATM   24  C20 UNL     1      -2.141   6.364  14.172  1.00  0.00     0.185 C 
HETATM   25  O4  UNL     1      -2.893   7.087  14.829  1.00  0.00    -0.292 OA
BRANCH  24  26
HETATM   26  C21 UNL     1      -2.648   5.101  13.477  1.00  0.00     0.260 C 
BRANCH  26  27
HETATM   27  O5  UNL     1      -3.744   5.420  12.618  1.00  0.00    -0.314 OA
BRANCH  27  28
HETATM   28  C22 UNL     1      -4.852   4.652  12.794  1.00  0.00     0.259 C 
HETATM   29  O6  UNL     1      -5.108   3.635  12.166  1.00  0.00    -0.265 OA
BRANCH  28  30
HETATM   30  C23 UNL     1      -5.718   5.248  13.873  1.00  0.00     0.120 C 
BRANCH  30  31
HETATM   31  C24 UNL     1      -6.542   6.411  13.334  1.00  0.00     0.112 C 
BRANCH  31  32
HETATM   32  C25 UNL     1      -7.974   6.002  13.076  1.00  0.00     0.218 C 
HETATM   33  O7  UNL     1      -8.305   5.225  12.187  1.00  0.00    -0.274 OA
HETATM   34  N1  UNL     1      -8.865   6.589  13.945  1.00  0.00    -0.357 N 
HETATM   35  H32 UNL     1      -8.535   7.324  14.558  1.00  0.00     0.162 HD
BRANCH  34  36
HETATM   36  C26 UNL     1     -10.294   6.421  13.802  1.00  0.00     0.162 C 
BRANCH  36  37
HETATM   37  C27 UNL     1     -10.980   7.742  13.616  1.00  0.00    -0.025 A 
HETATM   38  C28 UNL     1     -10.612   8.867  14.359  1.00  0.00     0.011 A 
HETATM   39  C29 UNL     1     -11.281  10.072  14.172  1.00  0.00     0.018 A 
HETATM   40  C30 UNL     1     -12.305  10.113  13.241  1.00  0.00     0.087 A 
HETATM   41  N2  UNL     1     -12.694   9.050  12.506  1.00  0.00    -0.375 N 
HETATM   42  C31 UNL     1     -12.026   7.892  12.711  1.00  0.00     0.096 A 
ATOM     43  H2  UNL     1     -13.455   9.116  11.830  1.00  0.00     0.164 HD
ENDBRANCH  36  37
ENDBRANCH  34  36
ENDBRANCH  31  32
ENDBRANCH  30  31
ENDBRANCH  28  30
ENDBRANCH  27  28
ENDBRANCH  26  27
ENDBRANCH  24  26
ENDBRANCH  21  24
TORSDOF 10
ENDMDL
