MODEL 1
REMARK minimizedAffinity -8.36033726
REMARK CNNscore 0.860113025
REMARK CNNaffinity 6.54649115
REMARK  10 active torsions:
REMARK  status: ('A' for Active; 'I' for Inactive)
REMARK    1  A    between atoms: C2_2  and  C3_3 
REMARK    2  A    between atoms: C2_2  and  C4_6 
REMARK    3  A    between atoms: C3_3  and  O2_5 
REMARK    4  A    between atoms: C4_6  and  C5_8 
REMARK    5  A    between atoms: C5_8  and  O4_9 
REMARK    6  A    between atoms: C5_8  and  C6_10 
REMARK    7  A    between atoms: C6_10  and  C7_11 
REMARK    8  A    between atoms: C7_11  and  C9_13 
REMARK    9  A    between atoms: C11_15  and  O5_16 
REMARK   10  A    between atoms: C30_37  and  O8_38 
ROOT
HETATM    1  C9  UNL     1      -3.113  49.419 -22.415  1.00  0.00     0.001 C 
HETATM    2  C10 UNL     1      -3.686  47.974 -22.299  1.00  0.00     0.038 C 
HETATM    3  C11 UNL     1      -3.608  47.561 -20.818  1.00  0.00     0.132 C 
HETATM    4  C12 UNL     1      -3.368  48.886 -20.052  1.00  0.00     0.017 C 
HETATM    5  C13 UNL     1      -4.737  49.618 -19.860  1.00  0.00     0.023 C 
HETATM    6  C14 UNL     1      -2.706  48.825 -18.670  1.00  0.00    -0.029 C 
HETATM    7  C15 UNL     1      -1.979  49.873 -18.207  1.00  0.00     0.002 C 
HETATM    8  C16 UNL     1      -1.987  51.134 -19.047  1.00  0.00     0.157 C 
HETATM    9  O6  UNL     1      -1.859  52.234 -18.508  1.00  0.00    -0.293 OA
HETATM   10  C17 UNL     1      -2.190  51.048 -20.561  1.00  0.00     0.094 C 
HETATM   11  C18 UNL     1      -2.373  49.606 -21.050  1.00  0.00    -0.019 C 
HETATM   12  C19 UNL     1      -0.966  48.931 -21.134  1.00  0.00     0.017 C 
HETATM   13  C20 UNL     1      -1.182  49.869 -16.882  1.00  0.00    -0.008 C 
HETATM   14  C21 UNL     1       0.237  50.435 -17.162  1.00  0.00     0.021 C 
HETATM   15  C22 UNL     1      -1.905  50.781 -15.852  1.00  0.00     0.022 C 
HETATM   16  C23 UNL     1      -1.733  50.396 -14.385  1.00  0.00     0.080 C 
HETATM   17  C24 UNL     1      -0.475  49.604 -14.148  1.00  0.00     0.135 C 
HETATM   18  O7  UNL     1       0.357  49.970 -13.318  1.00  0.00    -0.297 OA
HETATM   19  C25 UNL     1      -0.338  48.285 -14.913  1.00  0.00     0.018 C 
HETATM   20  C26 UNL     1       1.162  47.940 -15.082  1.00  0.00     0.023 C 
HETATM   21  C27 UNL     1      -0.928  47.192 -13.996  1.00  0.00     0.023 C 
HETATM   22  C28 UNL     1      -1.030  48.393 -16.329  1.00  0.00     0.016 C 
HETATM   23  C29 UNL     1      -2.396  47.686 -16.414  1.00  0.00     0.043 C 
HETATM   24  C30 UNL     1      -2.866  47.563 -17.863  1.00  0.00     0.149 C 
ENDROOT
BRANCH   1  25
HETATM   25  C7  UNL     1      -2.361  49.639 -23.768  1.00  0.00    -0.011 C 
HETATM   26  C8  UNL     1      -1.540  50.927 -23.763  1.00  0.00     0.010 C 
BRANCH  25  27
HETATM   27  C6  UNL     1      -3.385  49.645 -24.945  1.00  0.00     0.044 C 
BRANCH  27  28
HETATM   28  C5  UNL     1      -2.964  50.327 -26.263  1.00  0.00     0.188 C 
BRANCH  28  29
HETATM   29  C4  UNL     1      -3.547  49.666 -27.534  1.00  0.00     0.169 C 
HETATM   30  O3  UNL     1      -3.432  50.195 -28.648  1.00  0.00    -0.294 OA
BRANCH  29  31
HETATM   31  C2  UNL     1      -4.294  48.347 -27.409  1.00  0.00     0.152 C 
HETATM   32  C1  UNL     1      -5.118  48.310 -26.120  1.00  0.00     0.029 C 
BRANCH  31  33
HETATM   33  C3  UNL     1      -5.137  47.965 -28.593  1.00  0.00     0.150 C 
HETATM   34  O1  UNL     1      -6.326  47.678 -28.568  1.00  0.00    -0.649 OA
BRANCH  33  35
HETATM   35  O2  UNL     1      -4.463  47.857 -29.753  1.00  0.00    -0.776 OA
HETATM   36  H5  UNL     1      -5.136  47.503 -30.376  1.00  0.00     0.167 HD
ENDBRANCH  33  35
ENDBRANCH  31  33
ENDBRANCH  29  31
ENDBRANCH  28  29
BRANCH  28  37
HETATM   37  O4  UNL     1      -3.198  51.720 -26.168  1.00  0.00    -0.388 OA
HETATM   38  H7  UNL     1      -2.330  52.165 -26.176  1.00  0.00     0.210 HD
ENDBRANCH  28  37
ENDBRANCH  27  28
ENDBRANCH  25  27
ENDBRANCH   1  25
BRANCH   3  39
HETATM   39  O5  UNL     1      -4.798  46.880 -20.456  1.00  0.00    -0.394 OA
HETATM   40  H18 UNL     1      -4.769  46.765 -19.479  1.00  0.00     0.210 HD
ENDBRANCH   3  39
BRANCH  24  41
HETATM   41  O8  UNL     1      -4.233  47.169 -17.850  1.00  0.00    -0.391 OA
HETATM   42  H44 UNL     1      -4.727  47.856 -17.366  1.00  0.00     0.210 HD
ENDBRANCH  24  41
TORSDOF 10
ENDMDL
