MODEL 1
REMARK minimizedAffinity -8.81169605
REMARK CNNscore 0.536399245
REMARK CNNaffinity 7.39448023
REMARK  10 active torsions:
REMARK  status: ('A' for Active; 'I' for Inactive)
REMARK    1  A    between atoms: O1_2  and  C2_3 
REMARK    2  A    between atoms: C4_5  and  O2_6 
REMARK    3  A    between atoms: O2_6  and  C5_7 
REMARK    4  A    between atoms: C8_10  and  C9_11 
REMARK    5  A    between atoms: N1_12  and  C10_14 
REMARK    6  A    between atoms: C10_14  and  C11_15 
REMARK    7  A    between atoms: C21_27  and  C22_28 
REMARK    8  A    between atoms: C28_36  and  O5_37 
REMARK    9  A    between atoms: C32_41  and  O6_42 
REMARK   10  A    between atoms: C36_47  and  O8_48 
ROOT
HETATM    1  C5  UNL     1      -4.869   7.845  14.571  1.00  0.00     0.127 C 
HETATM    2  C6  UNL     1      -4.265   9.240  14.396  1.00  0.00     0.033 C 
HETATM    3  C7  UNL     1      -2.890   9.225  13.722  1.00  0.00     0.021 C 
HETATM    4  C8  UNL     1      -1.847   8.260  14.371  1.00  0.00     0.026 C 
HETATM    5  C16 UNL     1      -0.595   8.213  13.389  1.00  0.00     0.009 C 
HETATM    6  C17 UNL     1       0.484   9.263  13.736  1.00  0.00     0.007 C 
HETATM    7  C18 UNL     1       1.659   9.240  12.760  1.00  0.00     0.013 C 
HETATM    8  C19 UNL     1       2.330   7.846  12.660  1.00  0.00    -0.005 C 
HETATM    9  C20 UNL     1       3.089   7.538  13.966  1.00  0.00     0.019 C 
HETATM   10  C21 UNL     1       3.275   7.738  11.424  1.00  0.00     0.028 C 
HETATM   11  C26 UNL     1       2.305   7.582  10.238  1.00  0.00     0.013 C 
HETATM   12  C27 UNL     1       1.019   6.967  10.808  1.00  0.00     0.040 C 
HETATM   13  C28 UNL     1       1.272   6.758  12.317  1.00  0.00     0.070 C 
HETATM   14  C29 UNL     1       0.012   6.802  13.226  1.00  0.00     0.026 C 
HETATM   15  C30 UNL     1      -1.062   5.776  12.776  1.00  0.00     0.011 C 
HETATM   16  C31 UNL     1      -2.481   6.071  13.274  1.00  0.00     0.039 C 
HETATM   17  C32 UNL     1      -2.482   6.846  14.599  1.00  0.00     0.073 C 
HETATM   18  C33 UNL     1      -3.869   6.927  15.269  1.00  0.00     0.071 C 
ENDROOT
BRANCH   1  19
HETATM   19  O2  UNL     1      -5.228   7.335  13.282  1.00  0.00    -0.356 OA
BRANCH  19  20
HETATM   20  C4  UNL     1      -6.567   6.818  13.228  1.00  0.00     0.263 C 
HETATM   21  C3  UNL     1      -6.461   5.306  13.077  1.00  0.00     0.095 C 
HETATM   22  C2  UNL     1      -7.842   4.659  12.923  1.00  0.00     0.156 C 
HETATM   23  C36 UNL     1      -8.978   5.586  13.397  1.00  0.00     0.175 C 
HETATM   24  C34 UNL     1      -8.552   6.503  14.563  1.00  0.00     0.151 C 
HETATM   25  O7  UNL     1      -7.260   7.108  14.432  1.00  0.00    -0.354 OA
HETATM   26  C35 UNL     1      -8.564   5.767  15.898  1.00  0.00     0.042 C 
BRANCH  22  27
HETATM   27  O1  UNL     1      -7.930   3.426  13.653  1.00  0.00    -0.388 OA
HETATM   28  C1  UNL     1      -7.391   2.311  12.953  1.00  0.00     0.202 C 
ENDBRANCH  22  27
BRANCH  23  29
HETATM   29  O8  UNL     1      -9.378   6.415  12.292  1.00  0.00    -0.390 OA
HETATM   30  H50 UNL     1      -9.924   5.864  11.703  1.00  0.00     0.210 HD
ENDBRANCH  23  29
ENDBRANCH  19  20
ENDBRANCH   1  19
BRANCH  17  31
HETATM   31  O6  UNL     1      -1.675   6.071  15.514  1.00  0.00    -0.389 OA
HETATM   32  H42 UNL     1      -2.103   5.198  15.615  1.00  0.00     0.210 HD
ENDBRANCH  17  31
BRANCH   4  33
HETATM   33  C9  UNL     1      -1.404   8.776  15.749  1.00  0.00     0.069 C 
HETATM   34  N1  UNL     1      -0.716   9.857  15.888  1.00  0.00    -0.397 N 
ATOM     35  H1  UNL     1      -0.435  10.445  15.104  1.00  0.00     0.159 HD
BRANCH  34  36
HETATM   36  C10 UNL     1      -0.377  10.160  17.277  1.00  0.00     0.158 C 
BRANCH  36  37
HETATM   37  C11 UNL     1      -0.758  11.571  17.618  1.00  0.00    -0.025 A 
HETATM   38  C12 UNL     1      -1.013  11.961  18.936  1.00  0.00     0.011 A 
HETATM   39  C13 UNL     1      -1.340  13.287  19.215  1.00  0.00     0.018 A 
HETATM   40  C14 UNL     1      -1.393  14.182  18.160  1.00  0.00     0.087 A 
HETATM   41  N2  UNL     1      -1.143  13.849  16.875  1.00  0.00    -0.375 N 
HETATM   42  C15 UNL     1      -0.820  12.555  16.636  1.00  0.00     0.096 A 
ATOM     43  H2  UNL     1      -1.195  14.536  16.123  1.00  0.00     0.164 HD
ENDBRANCH  36  37
ENDBRANCH  34  36
ENDBRANCH   4  33
BRANCH  13  44
HETATM   44  O5  UNL     1       1.879   5.463  12.463  1.00  0.00    -0.389 OA
HETATM   45  H36 UNL     1       1.263   4.795  12.112  1.00  0.00     0.210 HD
ENDBRANCH  13  44
BRANCH  10  46
HETATM   46  C22 UNL     1       4.327   8.801  11.266  1.00  0.00    -0.045 A 
HETATM   47  C23 UNL     1       4.765   9.701  12.146  1.00  0.00     0.087 A 
HETATM   48  C24 UNL     1       5.764  10.526  11.464  1.00  0.00     0.283 A 
HETATM   49  O3  UNL     1       6.393  11.430  11.984  1.00  0.00    -0.260 OA
HETATM   50  O4  UNL     1       5.877  10.114  10.174  1.00  0.00    -0.314 OA
HETATM   51  C25 UNL     1       4.995   9.014   9.957  1.00  0.00     0.213 A 
ENDBRANCH  10  46
TORSDOF 10
ENDMDL
