MODEL 1
REMARK minimizedAffinity -10.0332727
REMARK  6 active torsions:
REMARK  status: ('A' for Active; 'I' for Inactive)
REMARK    1  A    between atoms: C2_2  and  C30_31 
REMARK    2  A    between atoms: C3_3  and  C4_4 
REMARK    3  A    between atoms: C4_4  and  C5_5 
REMARK    4  A    between atoms: C5_5  and  C6_6 
REMARK    5  A    between atoms: C6_6  and  C8_8 
REMARK    6  A    between atoms: C30_31  and  O3_33 
ROOT
HETATM    1  C8  UNL     1      -1.208  50.442 -22.583  1.00  0.00    -0.002 C 
HETATM    2  C9  UNL     1      -1.410  50.414 -21.032  1.00  0.00     0.007 C 
HETATM    3  C10 UNL     1      -2.775  49.749 -20.752  1.00  0.00     0.015 C 
HETATM    4  C11 UNL     1      -3.149  49.072 -22.080  1.00  0.00    -0.013 C 
HETATM    5  C12 UNL     1      -2.354  47.722 -22.127  1.00  0.00     0.021 C 
HETATM    6  C13 UNL     1      -4.611  48.679 -22.324  1.00  0.00    -0.070 C 
HETATM    7  C14 UNL     1      -5.317  48.041 -21.372  1.00  0.00    -0.022 C 
HETATM    8  C15 UNL     1      -6.582  47.288 -21.644  1.00  0.00     0.034 C 
HETATM    9  C16 UNL     1      -6.677  46.872 -23.129  1.00  0.00     0.013 C 
HETATM   10  C17 UNL     1      -7.860  45.882 -23.428  1.00  0.00     0.018 C 
HETATM   11  C18 UNL     1      -9.231  46.294 -22.867  1.00  0.00     0.023 C 
HETATM   12  C19 UNL     1      -7.519  44.500 -22.814  1.00  0.00     0.023 C 
HETATM   13  C20 UNL     1      -8.020  45.690 -24.945  1.00  0.00     0.135 C 
HETATM   14  O1  UNL     1      -8.309  44.601 -25.444  1.00  0.00    -0.297 OA
HETATM   15  C21 UNL     1      -7.933  46.916 -25.821  1.00  0.00     0.080 C 
HETATM   16  C22 UNL     1      -6.658  47.686 -25.525  1.00  0.00     0.017 C 
HETATM   17  C23 UNL     1      -6.536  48.134 -24.050  1.00  0.00    -0.031 C 
HETATM   18  C24 UNL     1      -7.637  49.198 -23.768  1.00  0.00     0.016 C 
HETATM   19  C25 UNL     1      -5.144  48.864 -23.757  1.00  0.00     0.024 C 
HETATM   20  C26 UNL     1      -4.005  48.654 -24.778  1.00  0.00     0.010 C 
HETATM   21  C27 UNL     1      -2.750  49.536 -24.528  1.00  0.00     0.011 C 
HETATM   22  C28 UNL     1      -2.655  50.148 -23.110  1.00  0.00    -0.029 C 
HETATM   23  C29 UNL     1      -3.456  51.491 -23.039  1.00  0.00     0.016 C 
ENDROOT
BRANCH   1  24
HETATM   24  C6  UNL     1      -0.448  51.719 -23.055  1.00  0.00    -0.014 C 
HETATM   25  C7  UNL     1       0.106  52.523 -21.872  1.00  0.00     0.010 C 
BRANCH  24  26
HETATM   26  C5  UNL     1      -1.381  52.624 -23.902  1.00  0.00     0.008 C 
BRANCH  26  27
HETATM   27  C4  UNL     1      -0.891  52.822 -25.343  1.00  0.00     0.028 C 
BRANCH  27  28
HETATM   28  C3  UNL     1       0.509  52.298 -25.509  1.00  0.00    -0.013 C 
HETATM   29  C2  UNL     1       1.115  51.925 -26.657  1.00  0.00     0.008 C 
HETATM   30  C1  UNL     1       0.488  51.925 -28.020  1.00  0.00     0.055 C 
BRANCH  29  31
HETATM   31  C30 UNL     1       2.523  51.444 -26.649  1.00  0.00     0.171 C 
HETATM   32  O2  UNL     1       2.958  50.557 -25.935  1.00  0.00    -0.646 OA
BRANCH  31  33
HETATM   33  O3  UNL     1       3.330  52.088 -27.510  1.00  0.00    -0.773 OA
HETATM   34  H46 UNL     1       4.200  51.662 -27.367  1.00  0.00     0.167 HD
ENDBRANCH  31  33
ENDBRANCH  29  31
ENDBRANCH  27  28
ENDBRANCH  26  27
ENDBRANCH  24  26
ENDBRANCH   1  24
TORSDOF 6
ENDMDL
