MODEL 1
REMARK minimizedAffinity -8.05417824
REMARK CNNscore 0.52009666
REMARK CNNaffinity 6.66460752
REMARK  13 active torsions:
REMARK  status: ('A' for Active; 'I' for Inactive)
REMARK    1  A    between atoms: C19_21  and  O3_22 
REMARK    2  A    between atoms: C19_21  and  C20_23 
REMARK    3  A    between atoms: C20_23  and  C21_25 
REMARK    4  A    between atoms: C21_25  and  O5_26 
REMARK    5  A    between atoms: O5_26  and  C22_27 
REMARK    6  A    between atoms: C22_27  and  C23_29 
REMARK    7  A    between atoms: C23_29  and  C24_30 
REMARK    8  A    between atoms: C24_30  and  C25_31 
REMARK       I    between atoms: C25_31  and  N1_33 
REMARK    9  A    between atoms: N1_33  and  C26_34 
REMARK   10  A    between atoms: C26_34  and  C27_35 
REMARK   11  A    between atoms: C27_35  and  C28_36 
REMARK   12  A    between atoms: C27_35  and  C29_39 
REMARK   13  A    between atoms: C28_36  and  O9_38 
ROOT
HETATM    1  C20 UNL     1      -1.407  11.547  18.740  1.00  0.00     0.185 C 
HETATM    2  O4  UNL     1      -1.141  12.737  18.557  1.00  0.00    -0.292 OA
ENDROOT
BRANCH   1   3
HETATM    3  C19 UNL     1      -2.596  10.850  18.033  1.00  0.00     0.128 C 
HETATM    4  C14 UNL     1      -2.284   9.988  16.762  1.00  0.00     0.005 C 
HETATM    5  C13 UNL     1      -1.711   8.582  17.011  1.00  0.00     0.091 C 
HETATM    6  C15 UNL     1      -1.338  10.730  15.771  1.00  0.00     0.019 C 
HETATM    7  C16 UNL     1      -3.737   9.841  16.199  1.00  0.00     0.002 C 
HETATM    8  C12 UNL     1      -1.823   7.757  15.732  1.00  0.00     0.133 C 
HETATM    9  C11 UNL     1      -3.245   7.613  15.171  1.00  0.00     0.072 C 
HETATM   10  O2  UNL     1      -0.836   7.222  15.235  1.00  0.00    -0.297 OA
HETATM   11  C2  UNL     1      -3.454   6.647  13.966  1.00  0.00    -0.009 C 
HETATM   12  C10 UNL     1      -3.800   9.043  14.884  1.00  0.00     0.003 C 
HETATM   13  C1  UNL     1      -2.826   7.204  12.667  1.00  0.00     0.021 C 
HETATM   14  C3  UNL     1      -2.875   5.237  14.259  1.00  0.00     0.022 C 
HETATM   15  C7  UNL     1      -4.974   6.503  13.781  1.00  0.00    -0.067 C 
HETATM   16  C4  UNL     1      -3.268   4.195  13.212  1.00  0.00     0.084 C 
HETATM   17  C5  UNL     1      -4.755   4.179  12.959  1.00  0.00     0.149 C 
HETATM   18  O1  UNL     1      -5.323   3.220  12.439  1.00  0.00    -0.293 OA
HETATM   19  C6  UNL     1      -5.548   5.378  13.316  1.00  0.00     0.053 C 
HETATM   20  C8  UNL     1      -5.863   7.637  14.262  1.00  0.00     0.035 C 
HETATM   21  C9  UNL     1      -5.198   9.009  14.230  1.00  0.00     0.010 C 
HETATM   22  C17 UNL     1      -4.247  11.278  16.215  1.00  0.00     0.009 C 
HETATM   23  C18 UNL     1      -3.628  11.881  17.494  1.00  0.00     0.047 C 
BRANCH   3  24
HETATM   24  O3  UNL     1      -3.279  10.040  19.008  1.00  0.00    -0.381 OA
HETATM   25  H25 UNL     1      -2.639   9.416  19.399  1.00  0.00     0.211 HD
ENDBRANCH   3  24
ENDBRANCH   1   3
BRANCH   1  26
HETATM   26  C21 UNL     1      -0.464  10.680  19.578  1.00  0.00     0.260 C 
BRANCH  26  27
HETATM   27  O5  UNL     1       0.906  10.855  19.247  1.00  0.00    -0.314 OA
BRANCH  27  28
HETATM   28  C22 UNL     1       1.675  11.386  20.237  1.00  0.00     0.259 C 
HETATM   29  O6  UNL     1       1.541  12.507  20.708  1.00  0.00    -0.265 OA
BRANCH  28  30
HETATM   30  C23 UNL     1       2.772  10.419  20.612  1.00  0.00     0.120 C 
BRANCH  30  31
HETATM   31  C24 UNL     1       2.531   9.832  21.999  1.00  0.00     0.112 C 
BRANCH  31  32
HETATM   32  C25 UNL     1       3.702  10.097  22.924  1.00  0.00     0.218 C 
HETATM   33  O7  UNL     1       3.837   9.546  24.013  1.00  0.00    -0.274 OA
HETATM   34  N1  UNL     1       4.618  10.979  22.399  1.00  0.00    -0.360 N 
HETATM   35  H32 UNL     1       4.282  11.635  21.701  1.00  0.00     0.162 HD
BRANCH  34  36
HETATM   36  C26 UNL     1       5.773  11.415  23.176  1.00  0.00     0.142 C 
BRANCH  36  37
HETATM   37  C27 UNL     1       6.776  12.268  22.373  1.00  0.00     0.134 C 
BRANCH  37  38
HETATM   38  C28 UNL     1       8.113  12.399  23.100  1.00  0.00     0.150 C 
HETATM   39  O8  UNL     1       8.577  13.387  23.647  1.00  0.00    -0.649 OA
BRANCH  38  40
HETATM   40  O9  UNL     1       8.868  11.277  23.055  1.00  0.00    -0.776 OA
HETATM   41  H36 UNL     1       9.706  11.566  23.479  1.00  0.00     0.167 HD
ENDBRANCH  38  40
ENDBRANCH  37  38
BRANCH  37  42
HETATM   42  C29 UNL     1       6.125  13.608  22.033  1.00  0.00    -0.042 A 
HETATM   43  C30 UNL     1       5.440  14.308  23.041  1.00  0.00     0.008 A 
HETATM   44  C31 UNL     1       4.862  15.551  22.778  1.00  0.00     0.001 A 
HETATM   45  C32 UNL     1       4.960  16.114  21.508  1.00  0.00     0.000 A 
HETATM   46  C33 UNL     1       5.652  15.441  20.502  1.00  0.00     0.001 A 
HETATM   47  C34 UNL     1       6.239  14.201  20.765  1.00  0.00     0.008 A 
ENDBRANCH  37  42
ENDBRANCH  36  37
ENDBRANCH  34  36
ENDBRANCH  31  32
ENDBRANCH  30  31
ENDBRANCH  28  30
ENDBRANCH  27  28
ENDBRANCH  26  27
ENDBRANCH   1  26
TORSDOF 13
ENDMDL
