MODEL 1
REMARK minimizedAffinity -10.0058861
REMARK  6 active torsions:
REMARK  status: ('A' for Active; 'I' for Inactive)
REMARK    1  A    between atoms: C2_2  and  C30_32 
REMARK    2  A    between atoms: C3_3  and  C4_4 
REMARK    3  A    between atoms: C4_4  and  C5_5 
REMARK    4  A    between atoms: C5_5  and  C6_6 
REMARK    5  A    between atoms: C6_6  and  C8_8 
REMARK    6  A    between atoms: C30_32  and  O4_34 
ROOT
HETATM    1  C8  UNL     1      -3.897  50.457 -24.786  1.00  0.00    -0.002 C 
HETATM    2  C9  UNL     1      -5.387  50.212 -24.411  1.00  0.00     0.007 C 
HETATM    3  C10 UNL     1      -5.473  50.111 -22.878  1.00  0.00     0.015 C 
HETATM    4  C11 UNL     1      -4.125  50.649 -22.366  1.00  0.00    -0.005 C 
HETATM    5  C12 UNL     1      -4.235  52.205 -22.333  1.00  0.00     0.021 C 
HETATM    6  C13 UNL     1      -3.625  50.264 -20.979  1.00  0.00    -0.000 C 
HETATM    7  C14 UNL     1      -2.296  50.188 -20.703  1.00  0.00    -0.060 C 
HETATM    8  C15 UNL     1      -1.262  50.440 -21.810  1.00  0.00     0.036 C 
HETATM    9  C16 UNL     1      -1.779  50.695 -23.241  1.00  0.00     0.015 C 
HETATM   10  C17 UNL     1      -3.157  50.064 -23.470  1.00  0.00    -0.028 C 
HETATM   11  C18 UNL     1      -3.016  48.510 -23.404  1.00  0.00     0.016 C 
HETATM   12  C19 UNL     1      -1.730  49.818 -19.303  1.00  0.00    -0.014 C 
HETATM   13  C20 UNL     1      -1.285  48.341 -19.366  1.00  0.00     0.020 C 
HETATM   14  C21 UNL     1      -0.532  50.725 -18.940  1.00  0.00     0.021 C 
HETATM   15  C22 UNL     1       0.033  50.537 -17.540  1.00  0.00     0.080 C 
HETATM   16  C23 UNL     1      -0.839  49.810 -16.547  1.00  0.00     0.135 C 
HETATM   17  O1  UNL     1      -0.307  49.317 -15.547  1.00  0.00    -0.297 OA
HETATM   18  C24 UNL     1      -2.361  49.773 -16.736  1.00  0.00     0.018 C 
HETATM   19  C25 UNL     1      -2.860  48.397 -16.236  1.00  0.00     0.023 C 
HETATM   20  C26 UNL     1      -2.938  50.849 -15.791  1.00  0.00     0.023 C 
HETATM   21  C27 UNL     1      -2.803  50.091 -18.204  1.00  0.00     0.020 C 
HETATM   22  C28 UNL     1      -4.146  49.463 -18.586  1.00  0.00     0.090 C 
HETATM   23  C29 UNL     1      -4.631  50.009 -19.902  1.00  0.00     0.157 C 
HETATM   24  O2  UNL     1      -5.831  50.207 -20.083  1.00  0.00    -0.293 OA
ENDROOT
BRANCH   1  25
HETATM   25  C6  UNL     1      -3.522  49.770 -26.138  1.00  0.00    -0.014 C 
HETATM   26  C7  UNL     1      -4.084  48.349 -26.242  1.00  0.00     0.010 C 
BRANCH  25  27
HETATM   27  C5  UNL     1      -1.977  49.748 -26.312  1.00  0.00     0.008 C 
BRANCH  27  28
HETATM   28  C4  UNL     1      -1.352  51.127 -26.556  1.00  0.00     0.028 C 
BRANCH  28  29
HETATM   29  C3  UNL     1       0.136  51.094 -26.339  1.00  0.00    -0.013 C 
HETATM   30  C2  UNL     1       1.099  51.461 -27.212  1.00  0.00     0.008 C 
HETATM   31  C1  UNL     1       0.867  51.946 -28.614  1.00  0.00     0.055 C 
BRANCH  30  32
HETATM   32  C30 UNL     1       2.536  51.389 -26.835  1.00  0.00     0.171 C 
HETATM   33  O3  UNL     1       2.994  50.704 -25.937  1.00  0.00    -0.646 OA
BRANCH  32  34
HETATM   34  O4  UNL     1       3.339  52.163 -27.585  1.00  0.00    -0.773 OA
HETATM   35  H44 UNL     1       4.229  51.998 -27.211  1.00  0.00     0.167 HD
ENDBRANCH  32  34
ENDBRANCH  30  32
ENDBRANCH  28  29
ENDBRANCH  27  28
ENDBRANCH  25  27
ENDBRANCH   1  25
TORSDOF 6
ENDMDL
