MODEL 1
REMARK minimizedAffinity -9.38865089
REMARK CNNscore 0.439242035
REMARK CNNaffinity 7.21540403
REMARK  10 active torsions:
REMARK  status: ('A' for Active; 'I' for Inactive)
REMARK    1  A    between atoms: C2_2  and  C3_4 
REMARK    2  A    between atoms: C3_4  and  O2_5 
REMARK    3  A    between atoms: N1_15  and  O3_17 
REMARK    4  A    between atoms: O3_17  and  C13_18 
REMARK    5  A    between atoms: C13_18  and  C14_19 
REMARK       I    between atoms: C14_19  and  N2_21 
REMARK    6  A    between atoms: N2_21  and  C15_22 
REMARK    7  A    between atoms: C15_22  and  C16_23 
REMARK    8  A    between atoms: C15_22  and  C25_33 
REMARK    9  A    between atoms: C16_23  and  C17_24 
REMARK   10  A    between atoms: C25_33  and  O6_35 
ROOT
HETATM    1  C3  UNL     1      -2.210   6.323  13.175  1.00  0.00     0.125 C 
HETATM    2  C4  UNL     1      -2.312   4.955  12.433  1.00  0.00     0.047 C 
HETATM    3  C5  UNL     1      -3.771   4.477  12.577  1.00  0.00     0.009 C 
HETATM    4  C6  UNL     1      -4.505   5.670  13.178  1.00  0.00     0.002 C 
HETATM    5  C7  UNL     1      -5.862   5.453  13.864  1.00  0.00    -0.004 C 
HETATM    6  C8  UNL     1      -6.880   4.663  13.019  1.00  0.00     0.010 C 
HETATM    7  C9  UNL     1      -8.064   5.494  12.540  1.00  0.00     0.035 C 
HETATM    8  C10 UNL     1      -8.741   6.288  13.636  1.00  0.00    -0.069 C 
HETATM    9  C11 UNL     1     -10.035   6.622  13.494  1.00  0.00     0.030 C 
HETATM   10  C12 UNL     1     -10.716   7.541  14.442  1.00  0.00     0.032 C 
HETATM   11  N1  UNL     1     -12.002   7.699  14.306  1.00  0.00    -0.271 N 
ATOM     12  H1  UNL     1     -12.565   7.220  13.602  1.00  0.00     0.194 HD
HETATM   13  C26 UNL     1      -9.887   8.241  15.499  1.00  0.00     0.060 C 
HETATM   14  C27 UNL     1      -8.387   8.190  15.207  1.00  0.00     0.020 C 
HETATM   15  C28 UNL     1      -7.878   6.783  14.800  1.00  0.00    -0.016 C 
HETATM   16  C29 UNL     1      -8.021   5.818  16.002  1.00  0.00     0.020 C 
HETATM   17  C30 UNL     1      -6.397   6.856  14.296  1.00  0.00     0.002 C 
HETATM   18  C31 UNL     1      -5.391   7.547  15.246  1.00  0.00     0.007 C 
HETATM   19  C32 UNL     1      -3.989   7.657  14.613  1.00  0.00     0.013 C 
HETATM   20  C33 UNL     1      -3.447   6.295  14.131  1.00  0.00    -0.002 C 
HETATM   21  C34 UNL     1      -3.143   5.412  15.377  1.00  0.00     0.019 C 
ENDROOT
BRANCH  11  22
HETATM   22  O3  UNL     1     -12.520   8.607  15.243  1.00  0.00    -0.271 OA
BRANCH  22  23
HETATM   23  C13 UNL     1     -13.270   9.587  14.537  1.00  0.00     0.303 C 
BRANCH  23  24
HETATM   24  C14 UNL     1     -14.316   8.928  13.643  1.00  0.00     0.244 C 
HETATM   25  O4  UNL     1     -14.216   8.889  12.420  1.00  0.00    -0.271 OA
HETATM   26  N2  UNL     1     -15.353   8.324  14.328  1.00  0.00    -0.344 N 
HETATM   27  H18 UNL     1     -15.196   8.149  15.316  1.00  0.00     0.163 HD
BRANCH  26  28
HETATM   28  C15 UNL     1     -16.296   7.438  13.633  1.00  0.00     0.186 C 
BRANCH  28  29
HETATM   29  C16 UNL     1     -15.788   5.990  13.669  1.00  0.00     0.077 C 
BRANCH  29  30
HETATM   30  C17 UNL     1     -16.597   5.083  14.543  1.00  0.00    -0.028 A 
HETATM   31  C18 UNL     1     -17.820   5.377  15.109  1.00  0.00     0.096 A 
HETATM   32  N3  UNL     1     -18.226   4.292  15.841  1.00  0.00    -0.365 N 
HETATM   33  C19 UNL     1     -17.290   3.287  15.767  1.00  0.00     0.042 A 
HETATM   34  H23 UNL     1     -19.089   4.228  16.363  1.00  0.00     0.165 HD
HETATM   35  C20 UNL     1     -17.290   2.014  16.349  1.00  0.00     0.030 A 
HETATM   36  C24 UNL     1     -16.251   3.755  14.965  1.00  0.00    -0.002 A 
HETATM   37  C21 UNL     1     -16.191   1.188  16.099  1.00  0.00     0.002 A 
HETATM   38  C22 UNL     1     -15.134   1.625  15.304  1.00  0.00     0.001 A 
HETATM   39  C23 UNL     1     -15.149   2.904  14.733  1.00  0.00     0.014 A 
ENDBRANCH  29  30
ENDBRANCH  28  29
BRANCH  28  40
HETATM   40  C25 UNL     1     -16.384   7.915  12.185  1.00  0.00     0.163 C 
HETATM   41  O5  UNL     1     -15.801   7.414  11.234  1.00  0.00    -0.648 OA
BRANCH  40  42
HETATM   42  O6  UNL     1     -17.205   8.966  12.012  1.00  0.00    -0.775 OA
HETATM   43  H28 UNL     1     -17.208   9.136  11.050  1.00  0.00     0.167 HD
ENDBRANCH  40  42
ENDBRANCH  28  40
ENDBRANCH  26  28
ENDBRANCH  23  24
ENDBRANCH  22  23
ENDBRANCH  11  22
BRANCH   1  44
HETATM   44  C2  UNL     1      -0.845   6.469  13.900  1.00  0.00     0.158 C 
HETATM   45  C1  UNL     1       0.256   5.518  13.505  1.00  0.00     0.094 C 
HETATM   46  O1  UNL     1      -0.630   7.338  14.749  1.00  0.00    -0.295 OA
ENDBRANCH   1  44
BRANCH   1  47
HETATM   47  O2  UNL     1      -2.372   7.320  12.160  1.00  0.00    -0.381 OA
HETATM   48  H4  UNL     1      -2.308   8.202  12.556  1.00  0.00     0.211 HD
ENDBRANCH   1  47
TORSDOF 10
ENDMDL
