MODEL 1
REMARK minimizedAffinity -8.03742695
REMARK CNNscore 0.596901953
REMARK CNNaffinity 6.82117081
REMARK  8 active torsions:
REMARK  status: ('A' for Active; 'I' for Inactive)
REMARK    1  A    between atoms: C2_2  and  C3_3 
REMARK    2  A    between atoms: C2_2  and  C27_30 
REMARK    3  A    between atoms: C3_3  and  C4_4 
REMARK    4  A    between atoms: C4_4  and  C5_5 
REMARK    5  A    between atoms: C5_5  and  C7_7 
REMARK    6  A    between atoms: C26_28  and  O3_29 
REMARK    7  A    between atoms: C27_30  and  C29_32 
REMARK    8  A    between atoms: C29_32  and  O5_34 
ROOT
HETATM    1  C7  UNL     1      -8.146   7.877  14.670  1.00  0.00    -0.002 C 
HETATM    2  C8  UNL     1      -7.242   8.977  15.294  1.00  0.00     0.006 C 
HETATM    3  C9  UNL     1      -5.798   8.632  14.900  1.00  0.00     0.010 C 
HETATM    4  C10 UNL     1      -5.950   7.535  13.845  1.00  0.00     0.027 C 
HETATM    5  C11 UNL     1      -4.771   6.683  13.434  1.00  0.00    -0.036 C 
HETATM    6  C12 UNL     1      -4.954   5.441  12.918  1.00  0.00     0.002 C 
HETATM    7  C13 UNL     1      -6.371   4.900  12.814  1.00  0.00     0.157 C 
HETATM    8  O1  UNL     1      -6.590   3.777  12.362  1.00  0.00    -0.293 OA
HETATM    9  C14 UNL     1      -7.545   5.766  13.248  1.00  0.00     0.093 C 
HETATM   10  C15 UNL     1      -7.152   6.714  14.380  1.00  0.00    -0.026 C 
HETATM   11  C16 UNL     1      -6.811   5.893  15.646  1.00  0.00     0.016 C 
HETATM   12  C17 UNL     1      -3.793   4.538  12.442  1.00  0.00    -0.008 C 
HETATM   13  C18 UNL     1      -3.623   3.440  13.527  1.00  0.00     0.021 C 
HETATM   14  C19 UNL     1      -4.089   3.856  11.067  1.00  0.00     0.022 C 
HETATM   15  C20 UNL     1      -2.874   3.602  10.173  1.00  0.00     0.080 C 
HETATM   16  C21 UNL     1      -1.613   3.397  10.973  1.00  0.00     0.131 C 
HETATM   17  O2  UNL     1      -0.879   2.428  10.778  1.00  0.00    -0.298 OA
HETATM   18  C22 UNL     1      -1.246   4.484  11.973  1.00  0.00     0.056 C 
HETATM   19  C23 UNL     1      -0.061   5.271  11.416  1.00  0.00     0.018 C 
HETATM   20  C24 UNL     1      -2.477   5.376  12.261  1.00  0.00     0.012 C 
HETATM   21  C25 UNL     1      -2.249   6.312  13.456  1.00  0.00     0.042 C 
HETATM   22  C26 UNL     1      -3.404   7.304  13.584  1.00  0.00     0.148 C 
ENDROOT
BRANCH   1  23
HETATM   23  C5  UNL     1      -9.488   7.687  15.432  1.00  0.00    -0.014 C 
HETATM   24  C6  UNL     1     -10.592   6.927  14.684  1.00  0.00     0.010 C 
BRANCH  23  25
HETATM   25  C4  UNL     1     -10.101   8.987  16.006  1.00  0.00     0.009 C 
BRANCH  25  26
HETATM   26  C3  UNL     1     -10.459   8.980  17.502  1.00  0.00     0.034 C 
BRANCH  26  27
HETATM   27  C2  UNL     1     -11.599   9.860  18.004  1.00  0.00    -0.075 C 
HETATM   28  C1  UNL     1     -12.830   9.854  17.460  1.00  0.00     0.015 C 
BRANCH  27  29
HETATM   29  C27 UNL     1     -11.194  10.797  19.152  1.00  0.00     0.107 C 
HETATM   30  C28 UNL     1     -11.676  12.246  19.026  1.00  0.00     0.026 C 
BRANCH  29  31
HETATM   31  C29 UNL     1     -11.652  10.245  20.501  1.00  0.00     0.147 C 
HETATM   32  O4  UNL     1     -11.278   9.233  21.071  1.00  0.00    -0.650 OA
BRANCH  31  33
HETATM   33  O5  UNL     1     -12.586  11.032  21.083  1.00  0.00    -0.776 OA
HETATM   34  H42 UNL     1     -12.794  10.570  21.922  1.00  0.00     0.167 HD
ENDBRANCH  31  33
ENDBRANCH  29  31
ENDBRANCH  27  29
ENDBRANCH  26  27
ENDBRANCH  25  26
ENDBRANCH  23  25
ENDBRANCH   1  23
BRANCH  22  35
HETATM   35  O3  UNL     1      -3.253   8.285  12.561  1.00  0.00    -0.391 OA
HETATM   36  H37 UNL     1      -3.931   8.968  12.699  1.00  0.00     0.210 HD
ENDBRANCH  22  35
TORSDOF 8
ENDMDL
