MODEL 1
REMARK minimizedAffinity -9.73026466
REMARK CNNscore 0.481904685
REMARK CNNaffinity 7.19760084
REMARK  8 active torsions:
REMARK  status: ('A' for Active; 'I' for Inactive)
REMARK    1  A    between atoms: C4_4  and  C5_5 
REMARK    2  A    between atoms: C5_5  and  C6_6 
REMARK    3  A    between atoms: C12_14  and  O3_15 
REMARK    4  A    between atoms: C20_24  and  O5_25 
REMARK    5  A    between atoms: C27_33  and  C28_34 
REMARK    6  A    between atoms: C28_34  and  C29_35 
REMARK    7  A    between atoms: C30_36  and  C32_38 
REMARK    8  A    between atoms: C32_38  and  O8_40 
ROOT
HETATM    1  C6  UNL     1      -4.659   6.981  13.219  1.00  0.00     0.014 A 
HETATM    2  C7  UNL     1      -3.432   6.379  12.888  1.00  0.00     0.096 A 
HETATM    3  O1  UNL     1      -2.320   7.185  12.849  1.00  0.00    -0.333 OA
HETATM    4  C8  UNL     1      -1.041   6.533  12.838  1.00  0.00     0.126 C 
HETATM    5  C9  UNL     1      -1.039   5.440  11.754  1.00  0.00     0.129 C 
HETATM    6  C10 UNL     1      -2.104   4.443  12.149  1.00  0.00     0.174 C 
HETATM    7  O2  UNL     1      -1.974   3.225  12.083  1.00  0.00    -0.292 OA
HETATM    8  C11 UNL     1      -3.383   5.012  12.610  1.00  0.00     0.078 A 
HETATM    9  C12 UNL     1      -4.526   4.212  12.739  1.00  0.00     0.095 A 
HETATM   10  C13 UNL     1      -5.749   4.787  13.111  1.00  0.00     0.032 A 
HETATM   11  C14 UNL     1      -5.811   6.169  13.338  1.00  0.00     0.092 A 
HETATM   12  O4  UNL     1      -6.965   6.807  13.710  1.00  0.00    -0.335 OA
HETATM   13  C15 UNL     1      -8.214   6.090  13.725  1.00  0.00     0.078 C 
HETATM   14  C16 UNL     1      -9.079   6.675  12.602  1.00  0.00     0.051 C 
HETATM   15  C17 UNL     1      -8.854   6.392  15.085  1.00  0.00     0.051 C 
HETATM   16  C18 UNL     1      -8.104   4.596  13.548  1.00  0.00     0.012 C 
HETATM   17  C19 UNL     1      -6.954   3.980  13.263  1.00  0.00     0.016 C 
HETATM   18  C20 UNL     1       0.341   4.786  11.610  1.00  0.00     0.144 C 
HETATM   19  C21 UNL     1       1.254   5.262  12.738  1.00  0.00     0.089 C 
HETATM   20  C22 UNL     1       0.551   5.042  14.084  1.00  0.00     0.025 C 
HETATM   21  C23 UNL     1      -0.615   6.055  14.260  1.00  0.00     0.060 C 
HETATM   22  C24 UNL     1      -0.199   7.394  14.954  1.00  0.00     0.062 C 
HETATM   23  C25 UNL     1      -1.374   8.063  15.679  1.00  0.00     0.046 C 
HETATM   24  C26 UNL     1       0.959   7.298  15.954  1.00  0.00     0.046 C 
HETATM   25  O6  UNL     1       0.218   8.273  13.890  1.00  0.00    -0.358 OA
HETATM   26  C27 UNL     1       0.111   7.563  12.633  1.00  0.00     0.158 C 
HETATM   27  C33 UNL     1       1.426   6.754  12.523  1.00  0.00     0.171 C 
HETATM   28  O9  UNL     1       2.535   7.240  12.313  1.00  0.00    -0.294 OA
ENDROOT
BRANCH  26  29
HETATM   29  C28 UNL     1       0.021   8.547  11.456  1.00  0.00     0.077 C 
BRANCH  29  30
HETATM   30  C29 UNL     1       1.117   8.448  10.422  1.00  0.00    -0.010 C 
HETATM   31  C30 UNL     1       0.985   8.451   9.080  1.00  0.00     0.008 C 
HETATM   32  C31 UNL     1       2.159   8.347   8.155  1.00  0.00     0.055 C 
BRANCH  31  33
HETATM   33  C32 UNL     1      -0.340   8.565   8.433  1.00  0.00     0.171 C 
HETATM   34  O7  UNL     1      -0.711   8.014   7.414  1.00  0.00    -0.646 OA
BRANCH  33  35
HETATM   35  O8  UNL     1      -1.159   9.365   9.137  1.00  0.00    -0.773 OA
HETATM   36  H38 UNL     1      -1.967   9.384   8.583  1.00  0.00     0.167 HD
ENDBRANCH  33  35
ENDBRANCH  31  33
ENDBRANCH  29  30
ENDBRANCH  26  29
BRANCH  18  37
HETATM   37  O5  UNL     1       0.879   5.148  10.340  1.00  0.00    -0.394 OA
HETATM   38  H21 UNL     1       1.787   4.795  10.273  1.00  0.00     0.210 HD
ENDBRANCH  18  37
BRANCH   1  39
HETATM   39  C5  UNL     1      -4.776   8.485  13.405  1.00  0.00     0.072 C 
BRANCH  39  40
HETATM   40  C4  UNL     1      -4.718   8.879  14.860  1.00  0.00    -0.020 C 
HETATM   41  C2  UNL     1      -4.100   9.939  15.415  1.00  0.00    -0.091 C 
HETATM   42  C1  UNL     1      -3.312  10.979  14.668  1.00  0.00     0.042 C 
HETATM   43  C3  UNL     1      -4.157  10.163  16.905  1.00  0.00     0.042 C 
ENDBRANCH  39  40
ENDBRANCH   1  39
BRANCH   9  44
HETATM   44  O3  UNL     1      -4.491   2.859  12.498  1.00  0.00    -0.359 OA
HETATM   45  H11 UNL     1      -3.565   2.595  12.296  1.00  0.00     0.217 HD
ENDBRANCH   9  44
TORSDOF 8
ENDMDL
