MODEL 1
REMARK minimizedAffinity -9.08530331
REMARK  4 active torsions:
REMARK  status: ('A' for Active; 'I' for Inactive)
REMARK    1  A    between atoms: C4_4  and  C5_5 
REMARK    2  A    between atoms: C5_5  and  C6_7 
REMARK    3  A    between atoms: C6_7  and  C7_8 
REMARK    4  A    between atoms: C7_8  and  C9_10 
ROOT
HETATM    1  C9  UNL     1      -4.824   7.499  13.437  1.00  0.00    -0.002 C 
HETATM    2  C10 UNL     1      -4.688   8.710  14.409  1.00  0.00     0.006 C 
HETATM    3  C11 UNL     1      -3.206   8.817  14.818  1.00  0.00     0.011 C 
HETATM    4  C12 UNL     1      -2.465   7.883  13.848  1.00  0.00    -0.032 C 
HETATM    5  C13 UNL     1      -2.258   8.693  12.521  1.00  0.00     0.016 C 
HETATM    6  C14 UNL     1      -1.077   7.339  14.330  1.00  0.00     0.004 C 
HETATM    7  C15 UNL     1      -0.098   8.481  14.702  1.00  0.00     0.007 C 
HETATM    8  C16 UNL     1       1.283   8.498  14.048  1.00  0.00     0.007 C 
HETATM    9  C17 UNL     1       1.248   8.074  12.575  1.00  0.00     0.010 C 
HETATM   10  C18 UNL     1       2.632   8.156  11.852  1.00  0.00     0.018 C 
HETATM   11  C19 UNL     1       3.690   7.214  12.451  1.00  0.00     0.023 C 
HETATM   12  C20 UNL     1       3.176   9.599  11.876  1.00  0.00     0.023 C 
HETATM   13  C21 UNL     1       2.451   7.765  10.377  1.00  0.00     0.135 C 
HETATM   14  O2  UNL     1       3.346   7.923   9.544  1.00  0.00    -0.297 OA
HETATM   15  C22 UNL     1       1.114   7.209   9.957  1.00  0.00     0.080 C 
HETATM   16  C23 UNL     1       0.645   6.168  10.959  1.00  0.00     0.018 C 
HETATM   17  C24 UNL     1       0.609   6.687  12.393  1.00  0.00    -0.026 A 
HETATM   18  C25 UNL     1       0.797   5.670  13.503  1.00  0.00     0.021 A 
HETATM   19  C26 UNL     1      -0.567   6.292  13.308  1.00  0.00    -0.027 A 
HETATM   20  C27 UNL     1      -1.607   5.228  12.920  1.00  0.00     0.011 C 
HETATM   21  C28 UNL     1      -3.008   5.769  12.604  1.00  0.00     0.011 C 
HETATM   22  C29 UNL     1      -3.510   6.704  13.715  1.00  0.00    -0.032 C 
HETATM   23  C30 UNL     1      -3.704   5.870  15.019  1.00  0.00     0.016 C 
ENDROOT
BRANCH   1  24
HETATM   24  C7  UNL     1      -6.210   6.805  13.556  1.00  0.00    -0.007 C 
HETATM   25  C8  UNL     1      -7.030   7.309  14.748  1.00  0.00     0.011 C 
BRANCH  24  26
HETATM   26  C6  UNL     1      -6.107   5.261  13.615  1.00  0.00     0.087 C 
BRANCH  26  27
HETATM   27  C5  UNL     1      -7.072   4.529  12.696  1.00  0.00     0.149 C 
HETATM   28  O1  UNL     1      -7.974   5.108  12.093  1.00  0.00    -0.293 OA
BRANCH  27  29
HETATM   29  C4  UNL     1      -6.855   3.084  12.428  1.00  0.00     0.052 C 
HETATM   30  C2  UNL     1      -5.992   2.571  11.534  1.00  0.00    -0.084 C 
HETATM   31  C1  UNL     1      -5.875   1.080  11.368  1.00  0.00     0.043 C 
HETATM   32  C3  UNL     1      -5.058   3.370  10.670  1.00  0.00     0.043 C 
ENDBRANCH  27  29
ENDBRANCH  26  27
ENDBRANCH  24  26
ENDBRANCH   1  24
TORSDOF 4
ENDMDL
