MODEL 1
REMARK minimizedAffinity -6.98167467
REMARK CNNscore 0.619238734
REMARK CNNaffinity 7.09848166
REMARK  7 active torsions:
REMARK  status: ('A' for Active; 'I' for Inactive)
REMARK    1  A    between atoms: C2_2  and  C4_4 
REMARK    2  A    between atoms: C4_4  and  O2_6 
REMARK    3  A    between atoms: O2_6  and  C5_7 
REMARK    4  A    between atoms: C5_7  and  C6_8 
REMARK    5  A    between atoms: C6_8  and  C7_10 
REMARK    6  A    between atoms: C8_12  and  C9_13 
REMARK    7  A    between atoms: C29_35  and  O7_36 
ROOT
HETATM    1  C7  UNL     1     -12.581   7.745  13.954  1.00  0.00     0.160 C 
HETATM    2  O4  UNL     1     -11.508   6.965  14.484  1.00  0.00    -0.339 OA
HETATM    3  C8  UNL     1     -10.653   6.661  13.378  1.00  0.00     0.266 C 
HETATM    4  O5  UNL     1     -10.811   7.651  12.369  1.00  0.00    -0.352 OA
HETATM    5  C15 UNL     1     -11.981   8.398  12.696  1.00  0.00     0.168 C 
HETATM    6  C16 UNL     1     -11.583   9.838  13.079  1.00  0.00     0.041 C 
HETATM    7  C17 UNL     1     -11.672   9.843  14.603  1.00  0.00     0.004 C 
HETATM    8  C18 UNL     1     -11.698  11.188  15.342  1.00  0.00    -0.001 C 
HETATM    9  C19 UNL     1     -10.486  12.049  14.938  1.00  0.00     0.010 C 
HETATM   10  C20 UNL     1     -10.384  13.332  15.754  1.00  0.00     0.036 C 
HETATM   11  C21 UNL     1     -10.392  13.009  17.226  1.00  0.00    -0.064 A 
HETATM   12  C22 UNL     1      -9.343  13.341  17.999  1.00  0.00     0.058 A 
HETATM   13  C23 UNL     1      -9.291  12.989  19.433  1.00  0.00     0.172 A 
HETATM   14  O6  UNL     1      -8.333  13.294  20.131  1.00  0.00    -0.289 OA
HETATM   15  C24 UNL     1     -10.437  12.245  19.986  1.00  0.00     0.052 A 
HETATM   16  C25 UNL     1     -11.480  11.909  19.217  1.00  0.00    -0.009 A 
HETATM   17  C26 UNL     1     -11.618  12.236  17.732  1.00  0.00     0.004 A 
HETATM   18  C27 UNL     1     -12.856  13.154  17.607  1.00  0.00     0.025 C 
HETATM   19  C28 UNL     1     -11.708  10.908  16.886  1.00  0.00     0.035 C 
HETATM   20  C29 UNL     1     -12.839   9.916  17.289  1.00  0.00     0.124 C 
HETATM   21  C30 UNL     1     -12.889   8.645  16.409  1.00  0.00     0.045 C 
HETATM   22  C31 UNL     1     -12.901   8.948  14.895  1.00  0.00     0.004 C 
HETATM   23  C32 UNL     1     -14.245   9.602  14.474  1.00  0.00     0.019 C 
ENDROOT
BRANCH   1  24
HETATM   24  C6  UNL     1     -13.784   6.846  13.632  1.00  0.00     0.188 C 
HETATM   25  O3  UNL     1     -14.415   6.954  12.577  1.00  0.00    -0.292 OA
BRANCH  24  26
HETATM   26  C5  UNL     1     -14.221   5.863  14.720  1.00  0.00     0.260 C 
BRANCH  26  27
HETATM   27  O2  UNL     1     -15.076   4.839  14.209  1.00  0.00    -0.314 OA
BRANCH  27  28
HETATM   28  C4  UNL     1     -15.941   4.333  15.134  1.00  0.00     0.262 C 
HETATM   29  O1  UNL     1     -16.477   4.997  16.015  1.00  0.00    -0.265 OA
BRANCH  28  30
HETATM   30  C2  UNL     1     -16.220   2.861  14.900  1.00  0.00     0.077 C 
HETATM   31  C1  UNL     1     -14.936   2.048  14.763  1.00  0.00     0.020 C 
HETATM   32  C3  UNL     1     -17.120   2.698  13.682  1.00  0.00     0.020 C 
ENDBRANCH  28  30
ENDBRANCH  27  28
ENDBRANCH  26  27
ENDBRANCH  24  26
ENDBRANCH   1  24
BRANCH   3  33
HETATM   33  C9  UNL     1      -9.197   6.615  13.859  1.00  0.00     0.041 C 
HETATM   34  C10 UNL     1      -9.109   6.747  15.393  1.00  0.00     0.009 C 
HETATM   35  C11 UNL     1      -7.820   6.172  15.986  1.00  0.00     0.001 C 
HETATM   36  C12 UNL     1      -6.668   6.223  14.996  1.00  0.00     0.000 C 
HETATM   37  C13 UNL     1      -6.969   5.405  13.740  1.00  0.00     0.001 C 
HETATM   38  C14 UNL     1      -8.456   5.363  13.375  1.00  0.00     0.009 C 
ENDBRANCH   3  33
BRANCH  20  39
HETATM   39  O7  UNL     1     -14.108  10.554  17.269  1.00  0.00    -0.395 OA
HETATM   40  H39 UNL     1     -14.773   9.917  17.588  1.00  0.00     0.210 HD
ENDBRANCH  20  39
TORSDOF 7
ENDMDL
