MODEL 1
REMARK minimizedAffinity -8.08527279
REMARK CNNscore 0.478780627
REMARK CNNaffinity 6.91885805
REMARK  9 active torsions:
REMARK  status: ('A' for Active; 'I' for Inactive)
REMARK    1  A    between atoms: C2_2  and  C3_3 
REMARK    2  A    between atoms: C2_2  and  C9_12 
REMARK    3  A    between atoms: C3_3  and  C4_4 
REMARK    4  A    between atoms: C4_4  and  C5_5 
REMARK    5  A    between atoms: C5_5  and  O1_6 
REMARK    6  A    between atoms: C5_5  and  C6_7 
REMARK    7  A    between atoms: C6_7  and  O2_9 
REMARK    8  A    between atoms: C6_7  and  C8_10 
REMARK    9  A    between atoms: C8_10  and  O3_11 
ROOT
HETATM    1  C9  UNL     1      -1.324   6.860  13.279  1.00  0.00    -0.002 C 
HETATM    2  C10 UNL     1      -0.658   7.840  12.270  1.00  0.00     0.007 C 
HETATM    3  C11 UNL     1      -0.351   9.140  13.036  1.00  0.00     0.015 C 
HETATM    4  C12 UNL     1      -1.452   9.201  14.111  1.00  0.00    -0.013 C 
HETATM    5  C13 UNL     1      -2.746   9.689  13.382  1.00  0.00     0.021 C 
HETATM    6  C14 UNL     1      -1.290  10.173  15.283  1.00  0.00    -0.070 C 
HETATM    7  C15 UNL     1      -0.727  11.385  15.114  1.00  0.00    -0.022 C 
HETATM    8  C16 UNL     1      -0.869  12.495  16.107  1.00  0.00     0.034 C 
HETATM    9  C17 UNL     1      -2.190  12.334  16.891  1.00  0.00     0.013 C 
HETATM   10  C18 UNL     1      -2.610  13.616  17.697  1.00  0.00     0.018 C 
HETATM   11  C19 UNL     1      -2.985  14.741  16.695  1.00  0.00     0.023 C 
HETATM   12  C20 UNL     1      -1.535  14.192  18.633  1.00  0.00     0.023 C 
HETATM   13  C21 UNL     1      -3.861  13.309  18.537  1.00  0.00     0.135 C 
HETATM   14  O4  UNL     1      -4.763  14.135  18.699  1.00  0.00    -0.297 OA
HETATM   15  C22 UNL     1      -3.910  11.995  19.277  1.00  0.00     0.080 C 
HETATM   16  C23 UNL     1      -3.581  10.830  18.357  1.00  0.00     0.017 C 
HETATM   17  C24 UNL     1      -2.209  10.960  17.650  1.00  0.00    -0.031 C 
HETATM   18  C25 UNL     1      -1.096  10.859  18.732  1.00  0.00     0.016 C 
HETATM   19  C26 UNL     1      -1.922   9.760  16.623  1.00  0.00     0.024 C 
HETATM   20  C27 UNL     1      -3.053   8.722  16.434  1.00  0.00     0.010 C 
HETATM   21  C28 UNL     1      -2.712   7.513  15.515  1.00  0.00     0.011 C 
HETATM   22  C29 UNL     1      -1.488   7.712  14.600  1.00  0.00    -0.029 C 
HETATM   23  C30 UNL     1      -0.209   7.308  15.431  1.00  0.00     0.016 C 
ENDROOT
BRANCH   1  24
HETATM   24  C2  UNL     1      -2.451   5.978  12.665  1.00  0.00    -0.014 C 
HETATM   25  C1  UNL     1      -3.861   6.179  13.225  1.00  0.00     0.010 C 
BRANCH  24  26
HETATM   26  C3  UNL     1      -2.127   4.461  12.613  1.00  0.00     0.007 C 
BRANCH  26  27
HETATM   27  C4  UNL     1      -0.915   4.114  11.737  1.00  0.00     0.035 C 
BRANCH  27  28
HETATM   28  C5  UNL     1      -0.568   2.613  11.645  1.00  0.00     0.154 C 
BRANCH  28  29
HETATM   29  O1  UNL     1       0.742   2.481  11.061  1.00  0.00    -0.392 OA
HETATM   30  H10 UNL     1       1.354   3.013  11.603  1.00  0.00     0.210 HD
ENDBRANCH  28  29
BRANCH  28  31
HETATM   31  C6  UNL     1      -1.544   1.713  10.832  1.00  0.00     0.101 C 
HETATM   32  C7  UNL     1      -2.758   1.284  11.657  1.00  0.00     0.051 C 
BRANCH  31  33
HETATM   33  O2  UNL     1      -2.017   2.444   9.687  1.00  0.00    -0.385 OA
HETATM   34  H14 UNL     1      -1.233   2.924   9.352  1.00  0.00     0.210 HD
ENDBRANCH  31  33
BRANCH  31  35
HETATM   35  C8  UNL     1      -0.803   0.464  10.299  1.00  0.00     0.204 C 
BRANCH  35  36
HETATM   36  O3  UNL     1      -0.544   0.548   8.900  1.00  0.00    -0.398 OA
HETATM   37  H17 UNL     1      -1.005  -0.202   8.481  1.00  0.00     0.209 HD
ENDBRANCH  35  36
ENDBRANCH  31  35
ENDBRANCH  28  31
ENDBRANCH  27  28
ENDBRANCH  26  27
ENDBRANCH  24  26
ENDBRANCH   1  24
TORSDOF 9
ENDMDL
