MODEL 1
REMARK minimizedAffinity -9.38418198
REMARK  7 active torsions:
REMARK  status: ('A' for Active; 'I' for Inactive)
REMARK    1  A    between atoms: C2_2  and  C30_33 
REMARK    2  A    between atoms: C3_3  and  C4_4 
REMARK    3  A    between atoms: C4_4  and  C5_5 
REMARK    4  A    between atoms: C5_5  and  C6_6 
REMARK    5  A    between atoms: C6_6  and  C8_8 
REMARK    6  A    between atoms: C15_15  and  O1_16 
REMARK    7  A    between atoms: C30_33  and  O5_35 
ROOT
HETATM    1  C8  UNL     1      -2.093   6.063  13.384  1.00  0.00    -0.002 C 
HETATM    2  C9  UNL     1      -2.232   5.324  12.034  1.00  0.00     0.007 C 
HETATM    3  C10 UNL     1      -0.856   5.429  11.331  1.00  0.00     0.015 C 
HETATM    4  C11 UNL     1       0.129   5.884  12.431  1.00  0.00    -0.005 C 
HETATM    5  C12 UNL     1       0.544   4.602  13.222  1.00  0.00     0.021 C 
HETATM    6  C13 UNL     1       1.459   6.551  12.102  1.00  0.00     0.002 C 
HETATM    7  C14 UNL     1       2.027   7.461  12.947  1.00  0.00    -0.032 C 
HETATM    8  C15 UNL     1       1.308   7.906  14.225  1.00  0.00     0.149 C 
HETATM    9  C16 UNL     1      -0.089   7.302  14.505  1.00  0.00     0.047 C 
HETATM   10  C17 UNL     1      -0.797   6.904  13.203  1.00  0.00    -0.026 C 
HETATM   11  C18 UNL     1      -1.076   8.189  12.368  1.00  0.00     0.016 C 
HETATM   12  C19 UNL     1       3.399   8.114  12.608  1.00  0.00    -0.012 C 
HETATM   13  C20 UNL     1       3.073   9.304  11.664  1.00  0.00     0.021 C 
HETATM   14  C21 UNL     1       4.208   8.693  13.811  1.00  0.00     0.021 C 
HETATM   15  C22 UNL     1       5.219   7.716  14.393  1.00  0.00     0.080 C 
HETATM   16  C23 UNL     1       6.271   7.411  13.348  1.00  0.00     0.135 C 
HETATM   17  O2  UNL     1       7.460   7.339  13.663  1.00  0.00    -0.297 OA
HETATM   18  C24 UNL     1       5.793   7.185  11.901  1.00  0.00     0.018 C 
HETATM   19  C25 UNL     1       6.262   8.369  11.050  1.00  0.00     0.023 C 
HETATM   20  C26 UNL     1       6.498   5.911  11.384  1.00  0.00     0.023 C 
HETATM   21  C27 UNL     1       4.244   6.973  11.934  1.00  0.00     0.020 C 
HETATM   22  C28 UNL     1       3.600   6.560  10.611  1.00  0.00     0.090 C 
HETATM   23  C29 UNL     1       2.162   6.138  10.835  1.00  0.00     0.157 C 
HETATM   24  O3  UNL     1       1.591   5.463   9.981  1.00  0.00    -0.293 OA
ENDROOT
BRANCH   1  25
HETATM   25  C6  UNL     1      -3.375   6.664  14.025  1.00  0.00    -0.014 C 
HETATM   26  C7  UNL     1      -3.441   6.267  15.511  1.00  0.00     0.010 C 
BRANCH  25  27
HETATM   27  C5  UNL     1      -4.762   6.528  13.354  1.00  0.00     0.008 C 
BRANCH  27  28
HETATM   28  C4  UNL     1      -5.642   5.294  13.579  1.00  0.00     0.028 C 
BRANCH  28  29
HETATM   29  C3  UNL     1      -5.411   4.156  12.628  1.00  0.00    -0.013 C 
HETATM   30  C2  UNL     1      -6.278   3.174  12.312  1.00  0.00     0.008 C 
HETATM   31  C1  UNL     1      -7.648   2.996  12.894  1.00  0.00     0.055 C 
BRANCH  30  32
HETATM   32  C30 UNL     1      -5.813   2.173  11.317  1.00  0.00     0.171 C 
HETATM   33  O4  UNL     1      -5.936   0.963  11.387  1.00  0.00    -0.646 OA
BRANCH  32  34
HETATM   34  O5  UNL     1      -5.203   2.743  10.265  1.00  0.00    -0.773 OA
HETATM   35  H44 UNL     1      -4.950   1.977   9.709  1.00  0.00     0.167 HD
ENDBRANCH  32  34
ENDBRANCH  30  32
ENDBRANCH  28  29
ENDBRANCH  27  28
ENDBRANCH  25  27
ENDBRANCH   1  25
BRANCH   8  36
HETATM   36  O1  UNL     1       1.165   9.324  14.164  1.00  0.00    -0.391 OA
HETATM   37  H22 UNL     1       0.793   9.620  15.012  1.00  0.00     0.210 HD
ENDBRANCH   8  36
TORSDOF 7
ENDMDL
