MODEL 1
REMARK minimizedAffinity -10.2357826
REMARK CNNscore 0.709947348
REMARK CNNaffinity 7.50181389
REMARK  13 active torsions:
REMARK  status: ('A' for Active; 'I' for Inactive)
REMARK    1  A    between atoms: C2_2  and  C3_3 
REMARK    2  A    between atoms: C2_2  and  C26_30 
REMARK    3  A    between atoms: C4_4  and  C5_5 
REMARK    4  A    between atoms: C5_5  and  C7_7 
REMARK    5  A    between atoms: C9_9  and  O1_10 
REMARK    6  A    between atoms: C20_21  and  O2_22 
REMARK    7  A    between atoms: C23_25  and  O3_26 
REMARK    8  A    between atoms: C25_28  and  O4_29 
REMARK    9  A    between atoms: C26_30  and  C28_32 
REMARK       I    between atoms: C28_32  and  N1_34 
REMARK   10  A    between atoms: N1_34  and  C29_35 
REMARK   11  A    between atoms: C29_35  and  C30_36 
REMARK   12  A    between atoms: C30_36  and  O6_37 
REMARK   13  A    between atoms: O6_37  and  S1_38 
ROOT
HETATM    1  C7  UNL     1      -5.255   5.786  13.720  1.00  0.00     0.005 C 
HETATM    2  C8  UNL     1      -6.015   4.509  13.256  1.00  0.00     0.038 C 
HETATM    3  C9  UNL     1      -7.516   4.841  13.355  1.00  0.00     0.126 C 
HETATM    4  C10 UNL     1      -7.560   6.299  13.808  1.00  0.00     0.059 C 
HETATM    5  C11 UNL     1      -6.277   6.472  14.685  1.00  0.00    -0.015 C 
HETATM    6  C12 UNL     1      -6.290   5.771  16.060  1.00  0.00     0.018 C 
HETATM    7  C13 UNL     1      -6.099   7.987  14.908  1.00  0.00     0.123 A 
HETATM    8  C14 UNL     1      -7.354   8.634  15.532  1.00  0.00     0.122 A 
HETATM    9  C15 UNL     1      -8.633   8.389  14.689  1.00  0.00     0.046 C 
HETATM   10  C16 UNL     1      -9.916   9.154  15.203  1.00  0.00    -0.030 C 
HETATM   11  C17 UNL     1     -10.275   8.743  16.653  1.00  0.00     0.016 C 
HETATM   12  C18 UNL     1      -9.651  10.698  15.201  1.00  0.00     0.012 C 
HETATM   13  C19 UNL     1     -10.769  11.554  14.590  1.00  0.00     0.032 C 
HETATM   14  C20 UNL     1     -12.172  11.069  14.931  1.00  0.00     0.118 C 
HETATM   15  C21 UNL     1     -12.390   9.587  14.602  1.00  0.00     0.039 C 
HETATM   16  C22 UNL     1     -11.090   8.850  14.218  1.00  0.00     0.025 C 
HETATM   17  C23 UNL     1     -11.320   7.345  14.004  1.00  0.00     0.126 C 
HETATM   18  C24 UNL     1     -10.052   6.666  13.479  1.00  0.00     0.071 C 
HETATM   19  C25 UNL     1      -8.856   6.864  14.421  1.00  0.00     0.073 C 
HETATM   20 NA1  UNL     1      -5.322   7.493  14.813  1.00  0.00    -0.420 Na
ATOM     21  HA1 UNL     1      -4.464   6.980  14.609  1.00  0.00     0.153 HD
ENDROOT
BRANCH   1  22
HETATM   22  C5  UNL     1      -3.770   5.536  14.111  1.00  0.00     0.009 C 
HETATM   23  C6  UNL     1      -3.362   5.875  15.552  1.00  0.00     0.014 C 
BRANCH  22  24
HETATM   24  C4  UNL     1      -2.831   6.072  13.051  1.00  0.00    -0.026 C 
HETATM   25  C3  UNL     1      -1.823   6.945  13.207  1.00  0.00    -0.025 C 
BRANCH  25  26
HETATM   26  C2  UNL     1      -0.923   7.388  12.064  1.00  0.00     0.016 C 
HETATM   27  C1  UNL     1      -1.066   8.907  11.910  1.00  0.00     0.015 C 
BRANCH  26  28
HETATM   28  C26 UNL     1       0.535   6.938  12.331  1.00  0.00     0.081 C 
HETATM   29  C27 UNL     1       1.535   8.100  12.354  1.00  0.00     0.020 C 
BRANCH  28  30
HETATM   30  C28 UNL     1       1.013   5.943  11.266  1.00  0.00     0.222 C 
HETATM   31  O5  UNL     1       0.274   5.128  10.722  1.00  0.00    -0.273 OA
HETATM   32  N1  UNL     1       2.340   6.114  10.923  1.00  0.00    -0.359 N 
HETATM   33  H46 UNL     1       2.928   6.637  11.559  1.00  0.00     0.162 HD
BRANCH  32  34
HETATM   34  C29 UNL     1       3.015   5.190  10.025  1.00  0.00     0.150 C 
BRANCH  34  35
HETATM   35  C30 UNL     1       3.169   5.769   8.626  1.00  0.00     0.212 C 
BRANCH  35  36
HETATM   36  O6  UNL     1       3.434   7.155   8.720  1.00  0.00    -0.255 OA
BRANCH  36  37
HETATM   37  S1  UNL     1       2.437   8.148   7.893  1.00  0.00     0.251 S 
HETATM   38  O7  UNL     1       1.989   7.323   6.774  1.00  0.00    -0.572 OA
HETATM   39  O8  UNL     1       1.391   8.471   8.861  1.00  0.00    -0.572 OA
HETATM   40  O9  UNL     1       3.298   9.268   7.528  1.00  0.00    -0.572 OA
ENDBRANCH  36  37
ENDBRANCH  35  36
ENDBRANCH  34  35
ENDBRANCH  32  34
ENDBRANCH  28  30
ENDBRANCH  26  28
ENDBRANCH  25  26
ENDBRANCH  22  24
ENDBRANCH   1  22
BRANCH   3  41
HETATM   41  O1  UNL     1      -8.170   3.993  14.294  1.00  0.00    -0.395 OA
HETATM   42  H15 UNL     1      -8.070   3.080  13.966  1.00  0.00     0.210 HD
ENDBRANCH   3  41
BRANCH  19  43
HETATM   43  O4  UNL     1      -9.163   6.169  15.626  1.00  0.00    -0.389 OA
HETATM   44  H41 UNL     1      -9.014   5.214  15.438  1.00  0.00     0.210 HD
ENDBRANCH  19  43
BRANCH  17  45
HETATM   45  O3  UNL     1     -12.343   7.148  13.023  1.00  0.00    -0.395 OA
HETATM   46  H38 UNL     1     -13.185   7.080  13.508  1.00  0.00     0.210 HD
ENDBRANCH  17  45
BRANCH  14  47
HETATM   47  O2  UNL     1     -12.445  11.285  16.314  1.00  0.00    -0.396 OA
HETATM   48  H33 UNL     1     -12.242  12.213  16.516  1.00  0.00     0.210 HD
ENDBRANCH  14  47
TORSDOF 13
ENDMDL
