MODEL 1
REMARK minimizedAffinity -9.49186325
REMARK CNNscore 0.622667432
REMARK CNNaffinity 7.30029154
REMARK  3 active torsions:
REMARK  status: ('A' for Active; 'I' for Inactive)
REMARK    1  A    between atoms: C2_2  and  O1_3 
REMARK    2  A    between atoms: O1_3  and  C3_4 
REMARK    3  A    between atoms: C3_4  and  C4_6 
ROOT
HETATM    1  C4  UNL     1      -6.607   6.168  13.887  1.00  0.00     0.045 C 
HETATM    2  C5  UNL     1      -7.734   7.214  13.834  1.00  0.00     0.026 C 
HETATM    3  C6  UNL     1      -6.311   5.742  15.348  1.00  0.00     0.020 C 
HETATM    4  C7  UNL     1      -5.161   6.531  15.975  1.00  0.00     0.011 C 
HETATM    5  C8  UNL     1      -3.814   6.323  15.224  1.00  0.00    -0.036 C 
HETATM    6  C9  UNL     1      -3.099   5.082  15.819  1.00  0.00     0.016 C 
HETATM    7  C10 UNL     1      -2.925   7.564  15.480  1.00  0.00     0.011 C 
HETATM    8  C11 UNL     1      -1.689   7.671  14.568  1.00  0.00     0.015 C 
HETATM    9  C12 UNL     1      -1.998   7.606  13.039  1.00  0.00    -0.013 C 
HETATM   10  C13 UNL     1      -2.871   8.834  12.654  1.00  0.00     0.021 C 
HETATM   11  C14 UNL     1      -2.807   6.318  12.864  1.00  0.00    -0.070 C 
HETATM   12  C15 UNL     1      -2.356   5.290  12.131  1.00  0.00    -0.022 C 
HETATM   13  C16 UNL     1      -1.010   5.205  11.508  1.00  0.00     0.033 C 
HETATM   14  C17 UNL     1       0.046   6.227  12.035  1.00  0.00     0.007 C 
HETATM   15  C18 UNL     1       1.386   6.127  11.145  1.00  0.00    -0.034 C 
HETATM   16  C19 UNL     1       1.694   4.592  10.996  1.00  0.00     0.016 C 
HETATM   17  C20 UNL     1       2.634   6.708  11.879  1.00  0.00     0.017 C 
HETATM   18  C21 UNL     1       3.458   7.805  11.204  1.00  0.00     0.080 C 
HETATM   19  C22 UNL     1       3.401   7.938   9.700  1.00  0.00     0.135 C 
HETATM   20  O3  UNL     1       4.102   8.786   9.141  1.00  0.00    -0.297 OA
HETATM   21  C23 UNL     1       2.496   7.005   8.905  1.00  0.00     0.017 C 
HETATM   22  C24 UNL     1       3.314   5.735   8.612  1.00  0.00     0.023 C 
HETATM   23  C25 UNL     1       2.174   7.642   7.531  1.00  0.00     0.023 C 
HETATM   24  C26 UNL     1       1.172   6.768   9.728  1.00  0.00     0.009 C 
HETATM   25  C27 UNL     1       0.334   8.077   9.770  1.00  0.00     0.007 C 
HETATM   26  C28 UNL     1      -0.898   8.091  10.677  1.00  0.00     0.011 C 
HETATM   27  C29 UNL     1      -0.622   7.648  12.139  1.00  0.00    -0.028 C 
HETATM   28  C30 UNL     1       0.329   8.692  12.779  1.00  0.00     0.016 C 
HETATM   29  C31 UNL     1      -4.065   6.081  13.704  1.00  0.00     0.024 C 
HETATM   30  C32 UNL     1      -5.343   6.778  13.210  1.00  0.00     0.029 C 
ENDROOT
BRANCH   1  31
HETATM   31  C3  UNL     1      -7.081   4.934  13.104  1.00  0.00     0.267 C 
HETATM   32  O2  UNL     1      -8.154   4.831  12.526  1.00  0.00    -0.264 OA
BRANCH  31  33
HETATM   33  O1  UNL     1      -6.127   3.958  13.132  1.00  0.00    -0.321 OA
BRANCH  33  34
HETATM   34  C2  UNL     1      -5.810   3.399  11.852  1.00  0.00     0.174 C 
HETATM   35  C1  UNL     1      -6.337   1.977  11.812  1.00  0.00     0.034 C 
ENDBRANCH  33  34
ENDBRANCH  31  33
ENDBRANCH   1  31
TORSDOF 3
ENDMDL
