MODEL 1
REMARK minimizedAffinity -5.7437067
REMARK CNNscore 0.386543602
REMARK CNNaffinity 5.75650072
REMARK  8 active torsions:
REMARK  status: ('A' for Active; 'I' for Inactive)
REMARK    1  A    between atoms: C3_3  and  C5_5 
REMARK       I    between atoms: C5_5  and  N1_7 
REMARK    2  A    between atoms: N1_7  and  C6_8 
REMARK    3  A    between atoms: C7_9  and  O2_10 
REMARK    4  A    between atoms: O2_10  and  C8_11 
REMARK    5  A    between atoms: C22_27  and  C23_28 
REMARK    6  A    between atoms: C23_28  and  N2_30 
REMARK    7  A    between atoms: C29_35  and  O5_36 
REMARK    8  A    between atoms: O5_36  and  C30_37 
ROOT
HETATM    1  C6  UNL     1     -15.025  -2.153  15.237  1.00  0.00     0.144 C 
HETATM    2  C7  UNL     1     -14.314  -2.864  14.059  1.00  0.00     0.162 C 
HETATM    3  C10 UNL     1     -13.663  -4.173  14.555  1.00  0.00     0.026 C 
HETATM    4  C11 UNL     1     -12.831  -4.867  13.467  1.00  0.00     0.008 C 
HETATM    5  C12 UNL     1     -11.998  -6.005  14.055  1.00  0.00     0.006 C 
HETATM    6  C13 UNL     1     -12.853  -7.014  14.831  1.00  0.00    -0.005 C 
HETATM    7  C14 UNL     1     -13.738  -6.300  15.909  1.00  0.00    -0.001 C 
HETATM    8  C15 UNL     1     -14.499  -7.304  16.821  1.00  0.00     0.007 C 
HETATM    9  C16 UNL     1     -13.618  -8.442  17.383  1.00  0.00     0.013 C 
HETATM   10  C17 UNL     1     -12.837  -9.147  16.272  1.00  0.00    -0.004 C 
HETATM   11  C18 UNL     1     -13.809  -9.888  15.318  1.00  0.00     0.019 C 
HETATM   12  C19 UNL     1     -11.990  -8.048  15.552  1.00  0.00     0.004 C 
HETATM   13  C20 UNL     1     -10.913  -8.848  14.801  1.00  0.00     0.041 C 
HETATM   14  C21 UNL     1     -10.603  -9.964  15.774  1.00  0.00     0.160 A 
HETATM   15  O4  UNL     1     -10.494  -9.560  17.140  1.00  0.00    -0.366 OA
HETATM   16  C22 UNL     1     -11.759 -10.131  16.735  1.00  0.00     0.125 A 
HETATM   17  C26 UNL     1     -14.640  -5.168  15.270  1.00  0.00    -0.032 C 
HETATM   18  C27 UNL     1     -15.679  -5.808  14.314  1.00  0.00     0.016 C 
HETATM   19  C28 UNL     1     -15.392  -4.391  16.395  1.00  0.00     0.044 C 
HETATM   20  C29 UNL     1     -16.036  -3.057  15.971  1.00  0.00     0.158 C 
ENDROOT
BRANCH   1  21
HETATM   21  N1  UNL     1     -15.667  -0.917  14.785  1.00  0.00    -0.347 N 
HETATM   22  C5  UNL     1     -15.186   0.314  15.154  1.00  0.00     0.247 C 
HETATM   23  O1  UNL     1     -14.325   0.464  16.013  1.00  0.00    -0.268 OA
HETATM   24  H8  UNL     1     -16.310  -1.002  14.011  1.00  0.00     0.163 HD
BRANCH  22  25
HETATM   25  C3  UNL     1     -15.789   1.471  14.417  1.00  0.00     0.002 C 
HETATM   26  C2  UNL     1     -16.677   1.156  13.453  1.00  0.00    -0.019 C 
HETATM   27  C1  UNL     1     -17.430   2.094  12.568  1.00  0.00     0.036 C 
HETATM   28  C4  UNL     1     -15.429   2.859  14.849  1.00  0.00     0.054 C 
ENDBRANCH  22  25
ENDBRANCH   1  21
BRANCH   2  29
HETATM   29  O2  UNL     1     -15.269  -3.117  13.007  1.00  0.00    -0.314 OA
BRANCH  29  30
HETATM   30  C8  UNL     1     -15.097  -2.462  11.830  1.00  0.00     0.255 C 
HETATM   31  C9  UNL     1     -16.400  -2.403  11.094  1.00  0.00     0.126 C 
HETATM   32  O3  UNL     1     -14.052  -1.987  11.414  1.00  0.00    -0.266 OA
ENDBRANCH  29  30
ENDBRANCH   2  29
BRANCH  20  33
HETATM   33  O5  UNL     1     -17.188  -3.270  15.127  1.00  0.00    -0.314 OA
BRANCH  33  34
HETATM   34  C30 UNL     1     -18.386  -2.855  15.621  1.00  0.00     0.255 C 
HETATM   35  C31 UNL     1     -18.253  -2.510  17.073  1.00  0.00     0.126 C 
HETATM   36  O6  UNL     1     -19.419  -2.738  14.980  1.00  0.00    -0.266 OA
ENDBRANCH  33  34
ENDBRANCH  20  33
BRANCH  16  37
HETATM   37  C23 UNL     1     -12.118 -11.448  17.398  1.00  0.00     0.253 C 
HETATM   38  C24 UNL     1     -11.582 -11.559  18.830  1.00  0.00     0.046 C 
BRANCH  37  39
HETATM   39  N2  UNL     1     -11.621 -12.540  16.544  1.00  0.00     0.086 N 
HETATM   40  C25 UNL     1     -12.657 -13.498  16.189  1.00  0.00     0.307 C 
HETATM   41  H36 UNL     1     -10.865 -13.024  17.026  1.00  0.00     0.316 HD
ENDBRANCH  37  39
ENDBRANCH  16  37
TORSDOF 8
ENDMDL
