MODEL 1
REMARK minimizedAffinity -10.5157003
REMARK CNNscore 0.364424706
REMARK CNNaffinity 7.5066433
REMARK  11 active torsions:
REMARK  status: ('A' for Active; 'I' for Inactive)
REMARK    1  A    between atoms: C3_3  and  O1_4 
REMARK    2  A    between atoms: N1_14  and  O2_16 
REMARK    3  A    between atoms: O2_16  and  C13_17 
REMARK    4  A    between atoms: C13_17  and  C14_18 
REMARK       I    between atoms: C14_18  and  N2_20 
REMARK    5  A    between atoms: N2_20  and  C15_21 
REMARK    6  A    between atoms: C15_21  and  C16_22 
REMARK    7  A    between atoms: C15_21  and  C17_25 
REMARK    8  A    between atoms: C16_22  and  O5_24 
REMARK    9  A    between atoms: C17_25  and  O6_26 
REMARK   10  A    between atoms: C17_25  and  C18_27 
REMARK   11  A    between atoms: C22_31  and  N3_32 
ROOT
HETATM    1  C1  UNL     1       2.481   6.295   6.718  1.00  0.00     0.015 C 
HETATM    2  C2  UNL     1       2.640   6.167   7.901  1.00  0.00    -0.078 C 
HETATM    3  C3  UNL     1       2.840   6.011   9.352  1.00  0.00     0.128 C 
HETATM    4  C4  UNL     1       2.136   4.756   9.891  1.00  0.00     0.052 C 
HETATM    5  C5  UNL     1       1.773   5.062  11.352  1.00  0.00     0.010 C 
HETATM    6  C6  UNL     1       2.186   6.521  11.616  1.00  0.00     0.002 C 
HETATM    7  C7  UNL     1       1.310   7.288  12.628  1.00  0.00    -0.004 C 
HETATM    8  C8  UNL     1       1.305   6.646  14.030  1.00  0.00     0.010 C 
HETATM    9  C9  UNL     1      -0.068   6.154  14.474  1.00  0.00     0.035 C 
HETATM   10  C10 UNL     1      -1.153   7.198  14.332  1.00  0.00    -0.069 C 
HETATM   11  C11 UNL     1      -2.214   7.165  15.157  1.00  0.00     0.030 C 
HETATM   12  C12 UNL     1      -3.363   8.091  14.983  1.00  0.00     0.032 C 
HETATM   13  N1  UNL     1      -4.221   8.180  15.960  1.00  0.00    -0.271 N 
ATOM     14  H1  UNL     1      -4.154   7.657  16.832  1.00  0.00     0.194 HD
HETATM   15  C24 UNL     1      -3.464   8.891  13.697  1.00  0.00     0.060 C 
HETATM   16  C25 UNL     1      -2.469   8.439  12.628  1.00  0.00     0.020 C 
HETATM   17  C26 UNL     1      -1.038   8.202  13.180  1.00  0.00    -0.016 C 
HETATM   18  C27 UNL     1      -0.471   9.543  13.707  1.00  0.00     0.020 C 
HETATM   19  C28 UNL     1      -0.113   7.573  12.081  1.00  0.00     0.002 C 
HETATM   20  C29 UNL     1       0.018   8.380  10.780  1.00  0.00     0.007 C 
HETATM   21  C30 UNL     1       0.826   7.600   9.735  1.00  0.00     0.014 C 
HETATM   22  C31 UNL     1       2.245   7.176  10.208  1.00  0.00     0.003 C 
HETATM   23  C32 UNL     1       3.168   8.411  10.211  1.00  0.00     0.020 C 
ENDROOT
BRANCH   3  24
HETATM   24  O1  UNL     1       4.245   5.866   9.573  1.00  0.00    -0.377 OA
HETATM   25  H2  UNL     1       4.386   5.584  10.492  1.00  0.00     0.211 HD
ENDBRANCH   3  24
BRANCH  13  26
HETATM   26  O2  UNL     1      -5.248   9.088  15.660  1.00  0.00    -0.271 OA
BRANCH  26  27
HETATM   27  C13 UNL     1      -6.496   8.401  15.683  1.00  0.00     0.303 C 
BRANCH  27  28
HETATM   28  C14 UNL     1      -6.644   7.531  14.442  1.00  0.00     0.244 C 
HETATM   29  O3  UNL     1      -5.987   7.714  13.419  1.00  0.00    -0.271 OA
HETATM   30  N2  UNL     1      -7.636   6.582  14.525  1.00  0.00    -0.342 N 
HETATM   31  H16 UNL     1      -8.196   6.535  15.371  1.00  0.00     0.163 HD
BRANCH  30  32
HETATM   32  C15 UNL     1      -8.069   5.819  13.347  1.00  0.00     0.216 C 
BRANCH  32  33
HETATM   33  C16 UNL     1      -9.491   6.218  12.931  1.00  0.00     0.166 C 
HETATM   34  O4  UNL     1     -10.399   6.542  13.685  1.00  0.00    -0.648 OA
BRANCH  33  35
HETATM   35  O5  UNL     1      -9.690   6.280  11.594  1.00  0.00    -0.775 OA
HETATM   36  H18 UNL     1     -10.642   6.500  11.506  1.00  0.00     0.167 HD
ENDBRANCH  33  35
ENDBRANCH  32  33
BRANCH  32  37
HETATM   37  C17 UNL     1      -8.071   4.293  13.617  1.00  0.00     0.184 C 
BRANCH  37  38
HETATM   38  O6  UNL     1      -7.875   4.019  15.017  1.00  0.00    -0.388 OA
HETATM   39  H20 UNL     1      -7.436   3.155  15.097  1.00  0.00     0.210 HD
ENDBRANCH  37  38
BRANCH  37  40
HETATM   40  C18 UNL     1      -7.025   3.536  12.812  1.00  0.00    -0.025 A 
HETATM   41  C19 UNL     1      -7.255   2.215  12.392  1.00  0.00     0.010 A 
HETATM   42  C20 UNL     1      -6.285   1.514  11.671  1.00  0.00     0.003 A 
HETATM   43  C21 UNL     1      -5.064   2.116  11.365  1.00  0.00     0.036 A 
HETATM   44  C22 UNL     1      -4.823   3.429  11.784  1.00  0.00     0.103 A 
HETATM   45  C23 UNL     1      -5.797   4.142  12.498  1.00  0.00     0.045 A 
BRANCH  44  46
HETATM   46  N3  UNL     1      -3.535   4.065  11.480  1.00  0.00    -0.116 N 
HETATM   47  O7  UNL     1      -2.948   3.710  10.447  1.00  0.00    -0.532 OA
HETATM   48  O8  UNL     1      -3.104   4.911  12.277  1.00  0.00    -0.532 OA
ENDBRANCH  44  46
ENDBRANCH  37  40
ENDBRANCH  32  37
ENDBRANCH  30  32
ENDBRANCH  27  28
ENDBRANCH  26  27
ENDBRANCH  13  26
TORSDOF 11
ENDMDL
