MODEL 1
REMARK minimizedAffinity -10.7743044
REMARK  7 active torsions:
REMARK  status: ('A' for Active; 'I' for Inactive)
REMARK    1  A    between atoms: N1_2  and  C2_3 
REMARK    2  A    between atoms: C4_5  and  N4_34 
REMARK    3  A    between atoms: C5_7  and  N2_12 
REMARK    4  A    between atoms: C7_9  and  O2_10 
REMARK    5  A    between atoms: C18_24  and  O3_25 
REMARK    6  A    between atoms: C19_26  and  C20_27 
REMARK    7  A    between atoms: C27_35  and  C28_36 
ROOT
HETATM    1  C2  UNL     1      -3.579  49.145 -21.112  1.00  0.00     0.257 C 
HETATM    2  C3  UNL     1      -2.334  49.165 -22.008  1.00  0.00     0.092 C 
HETATM    3  C4  UNL     1      -2.605  48.569 -23.395  1.00  0.00     0.234 C 
HETATM    4  O1  UNL     1      -3.879  47.944 -23.530  1.00  0.00    -0.333 OA
HETATM    5  C5  UNL     1      -5.048  48.695 -23.113  1.00  0.00     0.168 C 
HETATM    6  C6  UNL     1      -5.941  47.535 -22.612  1.00  0.00     0.074 C 
HETATM    7  C7  UNL     1      -4.773  49.685 -21.931  1.00  0.00     0.209 C 
ENDROOT
BRANCH   1   8
HETATM    8  N1  UNL     1      -3.412  49.956 -19.889  1.00  0.00     0.086 N 
HETATM    9  C1  UNL     1      -4.183  51.190 -19.893  1.00  0.00     0.307 C 
HETATM   10  H4  UNL     1      -3.678  49.385 -19.082  1.00  0.00     0.316 HD
ENDBRANCH   1   8
BRANCH   7  11
HETATM   11  O2  UNL     1      -4.380  51.002 -22.383  1.00  0.00    -0.384 OA
HETATM   12  C8  UNL     1      -5.113  51.444 -23.518  1.00  0.00     0.202 C 
ENDBRANCH   7  11
BRANCH   3  13
HETATM   13  N4  UNL     1      -2.332  49.449 -24.527  1.00  0.00    -0.316 N 
HETATM   14  C26 UNL     1      -2.922  49.331 -25.777  1.00  0.00     0.048 A 
HETATM   15  C21 UNL     1      -2.515  50.441 -26.539  1.00  0.00     0.004 A 
HETATM   16  C25 UNL     1      -3.785  48.348 -26.293  1.00  0.00     0.030 A 
HETATM   17  C20 UNL     1      -1.656  51.237 -25.717  1.00  0.00     0.021 A 
HETATM   18  C22 UNL     1      -2.999  50.545 -27.861  1.00  0.00     0.014 A 
HETATM   19  C27 UNL     1      -1.563  50.570 -24.505  1.00  0.00     0.077 A 
HETATM   20  C23 UNL     1      -3.855  49.569 -28.382  1.00  0.00     0.001 A 
HETATM   21  C24 UNL     1      -4.242  48.485 -27.605  1.00  0.00     0.002 A 
BRANCH  17  22
HETATM   22  C19 UNL     1      -0.919  52.428 -25.778  1.00  0.00     0.037 A 
HETATM   23  C16 UNL     1      -0.300  53.069 -24.677  1.00  0.00    -0.012 A 
HETATM   24  C15 UNL     1      -0.364  52.547 -23.377  1.00  0.00     0.015 A 
HETATM   25  C17 UNL     1       0.397  54.297 -25.193  1.00  0.00     0.162 A 
HETATM   26  C14 UNL     1       0.166  52.868 -22.099  1.00  0.00     0.004 A 
HETATM   27  C28 UNL     1      -1.088  51.386 -23.216  1.00  0.00     0.077 A 
HETATM   28  C9  UNL     1      -0.230  51.857 -21.201  1.00  0.00     0.049 A 
HETATM   29  C13 UNL     1       0.993  53.918 -21.640  1.00  0.00     0.014 A 
HETATM   30  N2  UNL     1      -1.056  50.981 -21.905  1.00  0.00    -0.308 N 
HETATM   31  C10 UNL     1       0.238  51.871 -19.873  1.00  0.00     0.030 A 
HETATM   32  C11 UNL     1       1.058  52.923 -19.446  1.00  0.00     0.002 A 
HETATM   33  C12 UNL     1       1.425  53.939 -20.314  1.00  0.00     0.001 A 
HETATM   34  N3  UNL     1       0.142  54.343 -26.663  1.00  0.00    -0.366 N 
HETATM   35  C18 UNL     1      -0.579  53.290 -26.886  1.00  0.00     0.148 A 
ATOM     36  H3  UNL     1       0.461  55.041 -27.335  1.00  0.00     0.162 HD
BRANCH  35  37
HETATM   37  O3  UNL     1      -0.994  53.021 -28.117  1.00  0.00    -0.346 OA
HETATM   38  H22 UNL     1      -0.656  53.727 -28.691  1.00  0.00     0.219 HD
ENDBRANCH  35  37
ENDBRANCH  17  22
ENDBRANCH   3  13
TORSDOF 7
ENDMDL
