MODEL 1
REMARK minimizedAffinity -7.64887762
REMARK CNNscore 0.608191073
REMARK CNNaffinity 6.94187593
REMARK  6 active torsions:
REMARK  status: ('A' for Active; 'I' for Inactive)
REMARK    1  A    between atoms: C2_2  and  C30_32 
REMARK    2  A    between atoms: C3_3  and  C4_4 
REMARK    3  A    between atoms: C4_4  and  C5_6 
REMARK    4  A    between atoms: C5_6  and  C6_7 
REMARK    5  A    between atoms: C6_7  and  C8_9 
REMARK    6  A    between atoms: C30_32  and  O4_34 
ROOT
HETATM    1  C8  UNL     1      -9.301   7.098  14.072  1.00  0.00    -0.001 C 
HETATM    2  C9  UNL     1      -8.988   7.107  15.597  1.00  0.00     0.007 C 
HETATM    3  C10 UNL     1     -10.042   8.000  16.278  1.00  0.00     0.015 C 
HETATM    4  C11 UNL     1     -10.748   8.734  15.119  1.00  0.00    -0.013 C 
HETATM    5  C12 UNL     1      -9.851   9.967  14.780  1.00  0.00     0.021 C 
HETATM    6  C13 UNL     1     -12.150   9.280  15.363  1.00  0.00    -0.070 C 
HETATM    7  C14 UNL     1     -12.581   9.661  16.575  1.00  0.00    -0.022 C 
HETATM    8  C15 UNL     1     -13.928  10.243  16.862  1.00  0.00     0.034 C 
HETATM    9  C16 UNL     1     -14.840  10.577  15.652  1.00  0.00     0.013 C 
HETATM   10  C17 UNL     1     -16.212   9.811  15.653  1.00  0.00     0.018 C 
HETATM   11  C18 UNL     1     -16.995  10.118  16.953  1.00  0.00     0.023 C 
HETATM   12  C19 UNL     1     -16.075   8.289  15.509  1.00  0.00     0.023 C 
HETATM   13  C20 UNL     1     -17.086  10.319  14.492  1.00  0.00     0.135 C 
HETATM   14  O2  UNL     1     -18.292  10.073  14.426  1.00  0.00    -0.297 OA
HETATM   15  C21 UNL     1     -16.426  11.159  13.427  1.00  0.00     0.080 C 
HETATM   16  C22 UNL     1     -15.079  10.550  13.083  1.00  0.00     0.017 C 
HETATM   17  C23 UNL     1     -14.073  10.598  14.269  1.00  0.00    -0.031 C 
HETATM   18  C24 UNL     1     -13.308  11.952  14.186  1.00  0.00     0.016 C 
HETATM   19  C25 UNL     1     -13.068   9.392  14.152  1.00  0.00     0.024 C 
HETATM   20  C26 UNL     1     -12.306   9.324  12.802  1.00  0.00     0.010 C 
HETATM   21  C27 UNL     1     -11.238   8.212  12.682  1.00  0.00     0.011 C 
HETATM   22  C28 UNL     1     -10.780   7.608  14.025  1.00  0.00    -0.029 C 
HETATM   23  C29 UNL     1     -11.726   6.418  14.385  1.00  0.00     0.016 C 
ENDROOT
BRANCH   1  24
HETATM   24  C6  UNL     1      -8.931   5.749  13.396  1.00  0.00    -0.007 C 
HETATM   25  C7  UNL     1      -8.813   5.856  11.872  1.00  0.00     0.011 C 
BRANCH  24  26
HETATM   26  C5  UNL     1      -7.653   5.113  13.993  1.00  0.00     0.087 C 
BRANCH  26  27
HETATM   27  C4  UNL     1      -7.230   3.799  13.355  1.00  0.00     0.150 C 
HETATM   28  O1  UNL     1      -7.946   2.802  13.360  1.00  0.00    -0.293 OA
BRANCH  27  29
HETATM   29  C3  UNL     1      -5.866   3.762  12.757  1.00  0.00     0.063 C 
HETATM   30  C2  UNL     1      -5.451   2.846  11.862  1.00  0.00     0.015 C 
HETATM   31  C1  UNL     1      -6.270   1.747  11.255  1.00  0.00     0.055 C 
BRANCH  30  32
HETATM   32  C30 UNL     1      -4.042   2.990  11.432  1.00  0.00     0.171 C 
HETATM   33  O3  UNL     1      -3.057   2.871  12.140  1.00  0.00    -0.646 OA
BRANCH  32  34
HETATM   34  O4  UNL     1      -3.927   3.270  10.125  1.00  0.00    -0.773 OA
HETATM   35  H44 UNL     1      -2.960   3.324   9.976  1.00  0.00     0.167 HD
ENDBRANCH  32  34
ENDBRANCH  30  32
ENDBRANCH  27  29
ENDBRANCH  26  27
ENDBRANCH  24  26
ENDBRANCH   1  24
TORSDOF 6
ENDMDL
