MODEL 1
REMARK minimizedAffinity -9.06912136
REMARK CNNscore 0.553457618
REMARK CNNaffinity 7.29690409
REMARK  9 active torsions:
REMARK  status: ('A' for Active; 'I' for Inactive)
REMARK    1  A    between atoms: C6_6  and  C8_8 
REMARK    2  A    between atoms: C8_8  and  O2_10 
REMARK    3  A    between atoms: O2_10  and  C9_11 
REMARK    4  A    between atoms: C9_11  and  C10_12 
REMARK    5  A    between atoms: C10_12  and  O3_13 
REMARK    6  A    between atoms: C27_33  and  O7_34 
REMARK    7  A    between atoms: C38_45  and  O8_46 
REMARK    8  A    between atoms: C38_45  and  C39_47 
REMARK    9  A    between atoms: C39_47  and  O9_48 
ROOT
HETATM    1  O2  UNL     1       1.204   9.829  15.990  1.00  0.00    -0.317 OA
ENDROOT
BRANCH   1   2
HETATM    2  C8  UNL     1       1.767  10.181  17.182  1.00  0.00     0.267 C 
HETATM    3  O1  UNL     1       2.332   9.372  17.909  1.00  0.00    -0.264 OA
BRANCH   2   4
HETATM    4  C6  UNL     1       1.640  11.692  17.463  1.00  0.00     0.049 C 
HETATM    5  C5  UNL     1       2.014  11.950  18.945  1.00  0.00     0.020 C 
HETATM    6  C4  UNL     1       0.928  11.534  19.929  1.00  0.00     0.002 C 
HETATM    7  C3  UNL     1      -0.374  12.262  19.637  1.00  0.00     0.010 C 
HETATM    8  C2  UNL     1      -0.910  12.049  18.194  1.00  0.00    -0.035 C 
HETATM    9  C1  UNL     1      -1.471  10.614  18.080  1.00  0.00     0.016 C 
HETATM   10  C29 UNL     1       0.228  12.322  17.150  1.00  0.00     0.012 C 
HETATM   11  C37 UNL     1      -2.040  13.118  17.938  1.00  0.00     0.010 C 
HETATM   12  C30 UNL     1      -0.270  12.031  15.728  1.00  0.00     0.008 C 
HETATM   13  C31 UNL     1      -1.636  12.608  15.355  1.00  0.00     0.018 C 
HETATM   14  C32 UNL     1      -2.456  13.303  16.445  1.00  0.00     0.028 C 
HETATM   15  C33 UNL     1      -3.965  13.029  16.230  1.00  0.00     0.026 C 
HETATM   16  C40 UNL     1      -2.466  14.824  16.212  1.00  0.00     0.172 C 
HETATM   17  C34 UNL     1      -4.612  14.186  17.000  1.00  0.00     0.031 C 
HETATM   18  C35 UNL     1      -4.413  13.946  18.513  1.00  0.00     0.009 C 
HETATM   19  C38 UNL     1      -3.860  15.407  16.410  1.00  0.00     0.143 C 
HETATM   20  C36 UNL     1      -3.277  12.971  18.857  1.00  0.00     0.007 C 
HETATM   21  O10 UNL     1      -1.479  15.493  15.918  1.00  0.00    -0.294 OA
HETATM   22  C7  UNL     1       2.741  12.392  16.618  1.00  0.00     0.026 C 
BRANCH  19  23
HETATM   23  O8  UNL     1      -4.395  15.684  15.106  1.00  0.00    -0.379 OA
HETATM   24  H53 UNL     1      -3.860  16.406  14.725  1.00  0.00     0.211 HD
ENDBRANCH  19  23
BRANCH  19  25
HETATM   25  C39 UNL     1      -3.821  16.689  17.245  1.00  0.00     0.210 C 
BRANCH  25  26
HETATM   26  O9  UNL     1      -3.231  17.758  16.508  1.00  0.00    -0.397 OA
HETATM   27  H56 UNL     1      -2.971  18.433  17.152  1.00  0.00     0.209 HD
ENDBRANCH  25  26
ENDBRANCH  19  25
ENDBRANCH   2   4
ENDBRANCH   1   2
BRANCH   1  28
HETATM   28  C9  UNL     1       2.100   9.256  15.021  1.00  0.00     0.227 C 
BRANCH  28  29
HETATM   29  C10 UNL     1       1.783   7.780  14.772  1.00  0.00     0.171 C 
HETATM   30  C11 UNL     1       0.346   7.408  15.148  1.00  0.00     0.175 C 
HETATM   31  O4  UNL     1      -0.205   7.793  16.170  1.00  0.00    -0.294 OA
HETATM   32  C12 UNL     1      -0.313   6.511  14.076  1.00  0.00     0.037 C 
HETATM   33  C13 UNL     1      -1.077   5.326  14.690  1.00  0.00     0.019 C 
HETATM   34  C23 UNL     1      -1.172   7.405  13.110  1.00  0.00     0.003 C 
HETATM   35  C28 UNL     1       0.983   6.007  13.402  1.00  0.00     0.059 C 
HETATM   36  C14 UNL     1      -2.598   5.499  14.762  1.00  0.00     0.010 C 
HETATM   37  C15 UNL     1      -2.992   6.956  14.982  1.00  0.00     0.040 C 
HETATM   38  C16 UNL     1      -4.494   7.271  14.964  1.00  0.00     0.051 C 
HETATM   39  C21 UNL     1      -2.508   7.885  13.855  1.00  0.00     0.084 C 
HETATM   40  C17 UNL     1      -5.392   6.213  15.589  1.00  0.00     0.026 C 
HETATM   41  C18 UNL     1      -4.769   8.671  15.557  1.00  0.00     0.020 C 
HETATM   42  C22 UNL     1      -4.742   7.402  13.481  1.00  0.00     0.268 C 
HETATM   43  C19 UNL     1      -3.565   9.620  15.490  1.00  0.00     0.004 C 
HETATM   44  C20 UNL     1      -2.522   9.342  14.391  1.00  0.00     0.040 C 
HETATM   45  O5  UNL     1      -3.591   7.828  12.887  1.00  0.00    -0.308 OA
HETATM   46  O6  UNL     1      -5.789   7.209  12.889  1.00  0.00    -0.264 OA
HETATM   47  C24 UNL     1      -1.542   6.587  11.824  1.00  0.00     0.019 C 
HETATM   48  C25 UNL     1      -0.300   8.594  12.578  1.00  0.00     0.016 C 
HETATM   49  C26 UNL     1       1.161   8.220  12.263  1.00  0.00     0.042 C 
HETATM   50  C27 UNL     1       1.811   7.289  13.303  1.00  0.00     0.099 C 
BRANCH  29  51
HETATM   51  O3  UNL     1       2.671   6.932  15.529  1.00  0.00    -0.377 OA
HETATM   52  H15 UNL     1       2.836   7.371  16.391  1.00  0.00     0.211 HD
ENDBRANCH  29  51
BRANCH  50  53
HETATM   53  O7  UNL     1       3.135   6.964  12.887  1.00  0.00    -0.386 OA
HETATM   54  H37 UNL     1       3.587   6.614  13.681  1.00  0.00     0.210 HD
ENDBRANCH  50  53
ENDBRANCH  28  29
ENDBRANCH   1  28
TORSDOF 9
ENDMDL
