MODEL 1
REMARK minimizedAffinity -7.58050585
REMARK CNNscore 0.309044361
REMARK CNNaffinity 6.70726061
REMARK  12 active torsions:
REMARK  status: ('A' for Active; 'I' for Inactive)
REMARK    1  A    between atoms: C2_2  and  C3_3 
REMARK    2  A    between atoms: C4_5  and  C5_6 
REMARK    3  A    between atoms: C5_6  and  C7_8 
REMARK    4  A    between atoms: C7_8  and  C8_9 
REMARK    5  A    between atoms: C9_10  and  C10_11 
REMARK    6  A    between atoms: C17_19  and  C18_20 
REMARK    7  A    between atoms: C18_20  and  C19_21 
REMARK    8  A    between atoms: C28_33  and  C29_34 
REMARK    9  A    between atoms: C29_34  and  C30_36 
REMARK   10  A    between atoms: C30_36  and  C31_37 
REMARK   11  A    between atoms: C31_37  and  C32_38 
REMARK   12  A    between atoms: C32_38  and  O5_39 
ROOT
HETATM    1  C10 UNL     1      -2.200   7.053  13.333  1.00  0.00     0.066 C 
HETATM    2  C11 UNL     1      -3.289   6.166  13.908  1.00  0.00     0.166 A 
HETATM    3  O2  UNL     1      -4.545   6.194  13.225  1.00  0.00    -0.368 OA
HETATM    4  C12 UNL     1      -4.492   6.869  14.491  1.00  0.00     0.088 A 
HETATM    5  C13 UNL     1      -5.270   6.187  15.570  1.00  0.00     0.049 C 
HETATM    6  C14 UNL     1      -4.467   8.378  14.381  1.00  0.00     0.026 C 
HETATM    7  C15 UNL     1      -5.698   9.069  14.965  1.00  0.00     0.014 C 
HETATM    8  C16 UNL     1      -3.112   8.954  14.894  1.00  0.00     0.041 C 
HETATM    9  C17 UNL     1      -2.978   9.007  16.432  1.00  0.00     0.095 C 
HETATM   10  N2  UNL     1      -2.031   7.972  16.738  1.00  0.00    -0.355 N 
HETATM   11  C27 UNL     1      -1.332   7.497  15.661  1.00  0.00     0.235 C 
HETATM   12  O3  UNL     1      -0.429   6.685  15.773  1.00  0.00    -0.272 OA
HETATM   13  C28 UNL     1      -1.840   8.150  14.388  1.00  0.00     0.116 C 
HETATM   14  H33 UNL     1      -1.815   7.642  17.674  1.00  0.00     0.162 HD
ENDROOT
BRANCH   9  15
HETATM   15  C18 UNL     1      -2.488  10.368  16.969  1.00  0.00     0.066 C 
BRANCH  15  16
HETATM   16  C19 UNL     1      -3.483  11.468  16.774  1.00  0.00    -0.028 A 
HETATM   17  C20 UNL     1      -3.917  11.967  15.561  1.00  0.00     0.096 A 
HETATM   18  N1  UNL     1      -4.807  12.978  15.804  1.00  0.00    -0.365 N 
HETATM   19  C21 UNL     1      -4.967  13.156  17.158  1.00  0.00     0.042 A 
HETATM   20  H28 UNL     1      -5.280  13.524  15.099  1.00  0.00     0.165 HD
HETATM   21  C22 UNL     1      -5.760  14.073  17.858  1.00  0.00     0.030 A 
HETATM   22  C26 UNL     1      -4.160  12.213  17.796  1.00  0.00    -0.002 A 
HETATM   23  C23 UNL     1      -5.724  14.028  19.254  1.00  0.00     0.002 A 
HETATM   24  C24 UNL     1      -4.929  13.102  19.921  1.00  0.00     0.001 A 
HETATM   25  C25 UNL     1      -4.147  12.189  19.206  1.00  0.00     0.014 A 
ENDBRANCH  15  16
ENDBRANCH   9  15
BRANCH  13  26
HETATM   26  C29 UNL     1      -0.866   9.142  13.745  1.00  0.00     0.146 C 
HETATM   27  O4  UNL     1      -1.227   9.793  12.757  1.00  0.00    -0.297 OA
BRANCH  26  28
HETATM   28  C30 UNL     1       0.500   9.391  14.366  1.00  0.00     0.081 C 
BRANCH  28  29
HETATM   29  C31 UNL     1       0.521  10.689  15.182  1.00  0.00     0.033 C 
BRANCH  29  30
HETATM   30  C32 UNL     1       1.194  10.516  16.540  1.00  0.00     0.164 C 
BRANCH  30  31
HETATM   31  O5  UNL     1       0.958   9.220  17.076  1.00  0.00    -0.401 OA
HETATM   32  H40 UNL     1       0.030   9.161  17.357  1.00  0.00     0.209 HD
ENDBRANCH  30  31
ENDBRANCH  29  30
ENDBRANCH  28  29
ENDBRANCH  26  28
ENDBRANCH  13  26
BRANCH   1  33
HETATM   33  C9  UNL     1      -0.998   6.343  12.724  1.00  0.00    -0.022 C 
HETATM   34  C8  UNL     1      -0.716   6.192  11.419  1.00  0.00    -0.029 C 
BRANCH  34  35
HETATM   35  C7  UNL     1       0.503   5.482  10.894  1.00  0.00     0.035 C 
BRANCH  35  36
HETATM   36  C5  UNL     1       1.812   6.284  11.077  1.00  0.00     0.008 C 
HETATM   37  C6  UNL     1       1.643   7.480  12.022  1.00  0.00     0.014 C 
BRANCH  36  38
HETATM   38  C4  UNL     1       2.280   6.780   9.726  1.00  0.00    -0.013 C 
HETATM   39  C2  UNL     1       1.664   7.650   8.902  1.00  0.00    -0.028 C 
HETATM   40  C1  UNL     1       0.350   8.333   9.116  1.00  0.00     0.051 C 
BRANCH  39  41
HETATM   41  C3  UNL     1       2.347   7.995   7.615  1.00  0.00     0.265 C 
HETATM   42  O1  UNL     1       3.094   8.955   7.467  1.00  0.00    -0.302 OA
ENDBRANCH  39  41
ENDBRANCH  36  38
ENDBRANCH  35  36
ENDBRANCH  34  35
ENDBRANCH   1  33
TORSDOF 12
ENDMDL
