MODEL 1
REMARK minimizedAffinity -7.15823698
REMARK CNNscore 0.761431456
REMARK CNNaffinity 7.02325487
REMARK  5 active torsions:
REMARK  status: ('A' for Active; 'I' for Inactive)
REMARK    1  A    between atoms: C4_4  and  C5_5 
REMARK    2  A    between atoms: C5_5  and  C6_6 
REMARK    3  A    between atoms: C6_6  and  C7_7 
REMARK    4  A    between atoms: C7_7  and  C9_9 
REMARK    5  A    between atoms: C24_24  and  O1_26 
ROOT
HETATM    1  C9  UNL     1      -1.331  52.935 -10.128  1.00  0.00    -0.002 C 
HETATM    2  C10 UNL     1      -0.774  53.185 -11.555  1.00  0.00     0.007 C 
HETATM    3  C11 UNL     1       0.612  53.847 -11.385  1.00  0.00     0.015 C 
HETATM    4  C12 UNL     1       0.968  53.649  -9.899  1.00  0.00    -0.013 C 
HETATM    5  C13 UNL     1       1.582  52.219  -9.767  1.00  0.00     0.021 C 
HETATM    6  C14 UNL     1       1.980  54.570  -9.232  1.00  0.00    -0.068 C 
HETATM    7  C15 UNL     1       1.916  54.778  -7.889  1.00  0.00    -0.068 C 
HETATM    8  C16 UNL     1       0.783  54.204  -7.035  1.00  0.00     0.036 C 
HETATM    9  C17 UNL     1      -0.339  53.432  -7.763  1.00  0.00     0.015 C 
HETATM   10  C18 UNL     1      -0.442  53.848  -9.235  1.00  0.00    -0.029 C 
HETATM   11  C19 UNL     1      -0.951  55.320  -9.286  1.00  0.00     0.016 C 
HETATM   12  C20 UNL     1       2.957  55.696  -7.199  1.00  0.00    -0.016 C 
HETATM   13  C21 UNL     1       2.381  57.129  -7.369  1.00  0.00     0.020 C 
HETATM   14  C22 UNL     1       3.157  55.474  -5.673  1.00  0.00     0.017 C 
HETATM   15  C23 UNL     1       4.249  54.463  -5.363  1.00  0.00     0.039 C 
HETATM   16  C24 UNL     1       5.655  54.929  -5.831  1.00  0.00     0.061 C 
HETATM   17  C25 UNL     1       6.520  53.658  -5.958  1.00  0.00     0.046 C 
HETATM   18  C26 UNL     1       5.611  55.827  -7.152  1.00  0.00    -0.012 C 
HETATM   19  C27 UNL     1       5.656  57.339  -6.825  1.00  0.00     0.018 C 
HETATM   20  C28 UNL     1       6.872  55.587  -8.025  1.00  0.00     0.018 C 
HETATM   21  C29 UNL     1       4.320  55.426  -7.949  1.00  0.00     0.009 C 
HETATM   22  C30 UNL     1       4.207  55.895  -9.405  1.00  0.00     0.011 C 
HETATM   23  C31 UNL     1       3.063  55.158 -10.121  1.00  0.00     0.036 C 
ENDROOT
BRANCH   1  24
HETATM   24  C7  UNL     1      -2.877  53.004  -9.953  1.00  0.00    -0.014 C 
HETATM   25  C8  UNL     1      -3.631  53.720 -11.082  1.00  0.00     0.010 C 
BRANCH  24  26
HETATM   26  C6  UNL     1      -3.432  51.565  -9.773  1.00  0.00     0.008 C 
BRANCH  26  27
HETATM   27  C5  UNL     1      -4.517  51.182 -10.786  1.00  0.00     0.028 C 
BRANCH  27  28
HETATM   28  C4  UNL     1      -5.536  50.266 -10.161  1.00  0.00    -0.025 C 
HETATM   29  C2  UNL     1      -5.848  49.006 -10.521  1.00  0.00    -0.091 C 
HETATM   30  C1  UNL     1      -6.877  48.221  -9.747  1.00  0.00     0.042 C 
HETATM   31  C3  UNL     1      -5.247  48.262 -11.681  1.00  0.00     0.042 C 
ENDBRANCH  27  28
ENDBRANCH  26  27
ENDBRANCH  24  26
ENDBRANCH   1  24
BRANCH  16  32
HETATM   32  O1  UNL     1       6.242  55.703  -4.772  1.00  0.00    -0.389 OA
HETATM   33  H41 UNL     1       6.304  55.140  -3.983  1.00  0.00     0.210 HD
ENDBRANCH  16  32
TORSDOF 5
ENDMDL
