MODEL 1
REMARK minimizedAffinity -7.11783028
REMARK CNNscore 0.459721267
REMARK CNNaffinity 6.57475042
REMARK  4 active torsions:
REMARK  status: ('A' for Active; 'I' for Inactive)
REMARK    1  A    between atoms: C13_15  and  C14_16 
REMARK    2  A    between atoms: C14_16  and  C16_18 
REMARK    3  A    between atoms: C16_18  and  C17_19 
REMARK    4  A    between atoms: C17_19  and  C18_20 
ROOT
HETATM    1  C1  UNL     1       5.922  58.602  -4.404  1.00  0.00     0.047 C 
HETATM    2  C2  UNL     1       6.004  57.422  -5.034  1.00  0.00     0.052 C 
HETATM    3  O1  UNL     1       6.548  56.325  -4.311  1.00  0.00    -0.284 OA
HETATM    4  C3  UNL     1       7.653  55.650  -4.756  1.00  0.00     0.263 C 
HETATM    5  O2  UNL     1       8.125  54.703  -4.132  1.00  0.00    -0.265 OA
HETATM    6  C4  UNL     1       8.245  56.122  -6.059  1.00  0.00     0.112 C 
HETATM    7  C5  UNL     1       7.418  55.628  -7.237  1.00  0.00     0.021 C 
HETATM    8  C6  UNL     1       5.910  55.801  -7.044  1.00  0.00    -0.022 A 
HETATM    9  C7  UNL     1       5.147  54.582  -6.587  1.00  0.00     0.022 A 
HETATM   10  C8  UNL     1       4.932  55.071  -8.011  1.00  0.00    -0.027 A 
HETATM   11  C9  UNL     1       5.551  54.220  -9.129  1.00  0.00     0.011 C 
HETATM   12  C10 UNL     1       4.603  53.429 -10.048  1.00  0.00     0.011 C 
HETATM   13  C11 UNL     1       3.114  53.747  -9.865  1.00  0.00    -0.032 C 
HETATM   14  C12 UNL     1       2.601  52.913  -8.662  1.00  0.00     0.016 C 
HETATM   15  C13 UNL     1       2.207  53.501 -11.116  1.00  0.00    -0.002 C 
HETATM   16  C22 UNL     1       1.047  54.524 -10.947  1.00  0.00     0.006 C 
HETATM   17  C23 UNL     1       1.453  55.483  -9.815  1.00  0.00     0.011 C 
HETATM   18  C24 UNL     1       2.976  55.303  -9.673  1.00  0.00    -0.032 C 
HETATM   19  C25 UNL     1       3.638  56.160 -10.799  1.00  0.00     0.016 C 
HETATM   20  C26 UNL     1       3.546  55.705  -8.287  1.00  0.00     0.004 C 
HETATM   21  C27 UNL     1       3.561  57.218  -8.034  1.00  0.00     0.007 C 
HETATM   22  C28 UNL     1       4.043  57.512  -6.619  1.00  0.00     0.012 C 
HETATM   23  C29 UNL     1       5.538  57.182  -6.469  1.00  0.00     0.051 C 
ENDROOT
BRANCH  15  24
HETATM   24  C14 UNL     1       1.736  52.080 -11.556  1.00  0.00    -0.014 C 
HETATM   25  C15 UNL     1       0.508  51.515 -10.833  1.00  0.00     0.010 C 
BRANCH  24  26
HETATM   26  C16 UNL     1       2.918  51.078 -11.564  1.00  0.00     0.008 C 
BRANCH  26  27
HETATM   27  C17 UNL     1       3.269  50.486 -12.938  1.00  0.00     0.028 C 
BRANCH  27  28
HETATM   28  C18 UNL     1       3.009  51.421 -14.088  1.00  0.00    -0.025 C 
HETATM   29  C19 UNL     1       2.065  51.325 -15.044  1.00  0.00    -0.091 C 
HETATM   30  C20 UNL     1       1.955  52.379 -16.116  1.00  0.00     0.042 C 
HETATM   31  C21 UNL     1       1.053  50.219 -15.168  1.00  0.00     0.042 C 
ENDBRANCH  27  28
ENDBRANCH  26  27
ENDBRANCH  24  26
ENDBRANCH  15  24
TORSDOF 4
ENDMDL
