MODEL 1
REMARK minimizedAffinity -6.4052763
REMARK CNNscore 0.62928915
REMARK CNNaffinity 6.83322191
REMARK  5 active torsions:
REMARK  status: ('A' for Active; 'I' for Inactive)
REMARK    1  A    between atoms: C2_2  and  C3_3 
REMARK    2  A    between atoms: C4_5  and  C5_6 
REMARK    3  A    between atoms: C5_6  and  C6_7 
REMARK    4  A    between atoms: C6_7  and  C7_8 
REMARK    5  A    between atoms: C7_8  and  C9_10 
ROOT
HETATM    1  C9  UNL     1      -2.180  14.958   4.103  1.00  0.00    -0.001 C 
HETATM    2  C10 UNL     1      -2.903  14.836   2.731  1.00  0.00     0.007 C 
HETATM    3  C11 UNL     1      -1.820  14.682   1.650  1.00  0.00     0.015 C 
HETATM    4  C12 UNL     1      -0.526  14.363   2.423  1.00  0.00    -0.004 C 
HETATM    5  C13 UNL     1      -0.532  12.833   2.718  1.00  0.00     0.021 C 
HETATM    6  C14 UNL     1       0.831  14.647   1.800  1.00  0.00     0.007 C 
HETATM    7  C15 UNL     1       1.940  14.897   2.540  1.00  0.00     0.007 C 
HETATM    8  C16 UNL     1       1.767  14.969   4.052  1.00  0.00     0.157 C 
HETATM    9  O2  UNL     1       2.749  15.045   4.790  1.00  0.00    -0.293 OA
HETATM   10  C17 UNL     1       0.379  14.941   4.682  1.00  0.00     0.094 C 
HETATM   11  C18 UNL     1      -0.716  15.292   3.677  1.00  0.00    -0.022 C 
HETATM   12  C19 UNL     1      -0.608  16.815   3.339  1.00  0.00     0.017 C 
HETATM   13  C20 UNL     1       3.359  15.134   1.959  1.00  0.00    -0.007 C 
HETATM   14  C21 UNL     1       3.651  16.645   2.129  1.00  0.00     0.021 C 
HETATM   15  C22 UNL     1       4.453  14.317   2.721  1.00  0.00     0.022 C 
HETATM   16  C23 UNL     1       5.674  13.900   1.904  1.00  0.00     0.080 C 
HETATM   17  C24 UNL     1       5.913  14.817   0.732  1.00  0.00     0.135 C 
HETATM   18  O3  UNL     1       6.999  15.373   0.574  1.00  0.00    -0.297 OA
HETATM   19  C25 UNL     1       4.767  14.942  -0.279  1.00  0.00     0.018 C 
HETATM   20  C26 UNL     1       4.842  16.308  -0.988  1.00  0.00     0.023 C 
HETATM   21  C27 UNL     1       5.005  13.854  -1.348  1.00  0.00     0.023 C 
HETATM   22  C28 UNL     1       3.410  14.674   0.457  1.00  0.00     0.021 C 
HETATM   23  C29 UNL     1       2.194  15.178  -0.315  1.00  0.00     0.090 C 
HETATM   24  C30 UNL     1       0.947  14.613   0.310  1.00  0.00     0.157 C 
HETATM   25  O4  UNL     1       0.045  14.165  -0.392  1.00  0.00    -0.293 OA
ENDROOT
BRANCH   1  26
HETATM   26  C7  UNL     1      -2.941  15.906   5.079  1.00  0.00    -0.014 C 
HETATM   27  C8  UNL     1      -3.093  17.319   4.499  1.00  0.00     0.010 C 
BRANCH  26  28
HETATM   28  C6  UNL     1      -2.211  15.995   6.450  1.00  0.00     0.008 C 
BRANCH  28  29
HETATM   29  C5  UNL     1      -2.049  17.425   6.990  1.00  0.00     0.028 C 
BRANCH  29  30
HETATM   30  C4  UNL     1      -2.797  17.701   8.261  1.00  0.00    -0.017 C 
HETATM   31  C2  UNL     1      -3.957  18.375   8.388  1.00  0.00    -0.028 C 
HETATM   32  C1  UNL     1      -4.782  18.959   7.286  1.00  0.00     0.051 C 
BRANCH  31  33
HETATM   33  C3  UNL     1      -4.518  18.545   9.763  1.00  0.00     0.265 C 
HETATM   34  O1  UNL     1      -3.951  18.178  10.785  1.00  0.00    -0.302 OA
ENDBRANCH  31  33
ENDBRANCH  29  30
ENDBRANCH  28  29
ENDBRANCH  26  28
ENDBRANCH   1  26
TORSDOF 5
ENDMDL
