MODEL 1
REMARK minimizedAffinity -7.41226625
REMARK CNNscore 0.538187623
REMARK CNNaffinity 6.97643661
REMARK  13 active torsions:
REMARK  status: ('A' for Active; 'I' for Inactive)
REMARK    1  A    between atoms: C3_3  and  O1_4 
REMARK    2  A    between atoms: N1_14  and  O2_16 
REMARK    3  A    between atoms: O2_16  and  C13_17 
REMARK    4  A    between atoms: C13_17  and  C14_18 
REMARK       I    between atoms: C14_18  and  N2_20 
REMARK    5  A    between atoms: N2_20  and  C15_21 
REMARK    6  A    between atoms: C15_21  and  C16_22 
REMARK    7  A    between atoms: C15_21  and  C21_33 
REMARK       I    between atoms: C16_22  and  N3_24 
REMARK    8  A    between atoms: N3_24  and  C17_25 
REMARK    9  A    between atoms: C17_25  and  C18_26 
REMARK   10  A    between atoms: C17_25  and  C20_30 
REMARK   11  A    between atoms: C18_26  and  C19_27 
REMARK   12  A    between atoms: C19_27  and  O6_29 
REMARK   13  A    between atoms: C20_30  and  O8_32 
ROOT
HETATM    1  C1  UNL     1      -7.239   5.832  13.996  1.00  0.00     0.015 C 
HETATM    2  C2  UNL     1      -6.267   6.342  14.483  1.00  0.00    -0.078 C 
HETATM    3  C3  UNL     1      -5.075   6.978  15.090  1.00  0.00     0.128 C 
HETATM    4  C4  UNL     1      -4.239   5.924  15.833  1.00  0.00     0.052 C 
HETATM    5  C5  UNL     1      -3.182   5.436  14.828  1.00  0.00     0.010 C 
HETATM    6  C6  UNL     1      -3.371   6.274  13.546  1.00  0.00     0.002 C 
HETATM    7  C7  UNL     1      -2.130   6.506  12.644  1.00  0.00    -0.004 C 
HETATM    8  C8  UNL     1      -1.235   5.252  12.537  1.00  0.00     0.010 C 
HETATM    9  C9  UNL     1       0.058   5.349  13.336  1.00  0.00     0.035 C 
HETATM   10  C10 UNL     1       0.873   6.571  12.998  1.00  0.00    -0.069 C 
HETATM   11  C11 UNL     1       2.200   6.560  13.216  1.00  0.00     0.030 C 
HETATM   12  C12 UNL     1       3.063   7.737  12.933  1.00  0.00     0.032 C 
HETATM   13  N1  UNL     1       4.347   7.599  13.097  1.00  0.00    -0.271 N 
ATOM     14  H1  UNL     1       4.795   6.742  13.423  1.00  0.00     0.194 HD
HETATM   15  C24 UNL     1       2.401   9.020  12.461  1.00  0.00     0.060 C 
HETATM   16  C25 UNL     1       0.926   9.059  12.858  1.00  0.00     0.020 C 
HETATM   17  C26 UNL     1       0.143   7.786  12.436  1.00  0.00    -0.016 C 
HETATM   18  C27 UNL     1       0.152   7.720  10.882  1.00  0.00     0.020 C 
HETATM   19  C28 UNL     1      -1.355   7.834  12.926  1.00  0.00     0.002 C 
HETATM   20  C29 UNL     1      -1.563   8.276  14.382  1.00  0.00     0.007 C 
HETATM   21  C30 UNL     1      -3.037   8.514  14.736  1.00  0.00     0.014 C 
HETATM   22  C31 UNL     1      -4.062   7.558  14.051  1.00  0.00     0.003 C 
HETATM   23  C32 UNL     1      -4.766   8.325  12.914  1.00  0.00     0.020 C 
ENDROOT
BRANCH   3  24
HETATM   24  O1  UNL     1      -5.528   7.979  15.991  1.00  0.00    -0.377 OA
HETATM   25  H2  UNL     1      -6.166   7.554  16.588  1.00  0.00     0.211 HD
ENDBRANCH   3  24
BRANCH  13  26
HETATM   26  O2  UNL     1       5.040   8.773  12.768  1.00  0.00    -0.271 OA
BRANCH  26  27
HETATM   27  C13 UNL     1       5.788   9.192  13.904  1.00  0.00     0.303 C 
BRANCH  27  28
HETATM   28  C14 UNL     1       6.227  10.644  13.750  1.00  0.00     0.244 C 
HETATM   29  O3  UNL     1       5.427  11.556  13.544  1.00  0.00    -0.271 OA
HETATM   30  N2  UNL     1       7.583  10.856  13.899  1.00  0.00    -0.346 N 
HETATM   31  H16 UNL     1       8.080  10.127  14.402  1.00  0.00     0.163 HD
BRANCH  30  32
HETATM   32  C15 UNL     1       8.115  12.212  14.028  1.00  0.00     0.180 C 
BRANCH  32  33
HETATM   33  C16 UNL     1       8.453  12.431  15.521  1.00  0.00     0.241 C 
HETATM   34  O4  UNL     1       8.361  13.533  16.062  1.00  0.00    -0.271 OA
HETATM   35  N3  UNL     1       8.852  11.302  16.200  1.00  0.00    -0.344 N 
HETATM   36  H18 UNL     1       8.645  10.397  15.785  1.00  0.00     0.163 HD
BRANCH  35  37
HETATM   37  C17 UNL     1       9.037  11.312  17.653  1.00  0.00     0.192 C 
BRANCH  37  38
HETATM   38  C18 UNL     1      10.273  10.520  18.071  1.00  0.00     0.146 C 
BRANCH  38  39
HETATM   39  C19 UNL     1      10.915  11.097  19.299  1.00  0.00     0.141 C 
HETATM   40  O5  UNL     1      10.533  12.072  19.927  1.00  0.00    -0.650 OA
BRANCH  39  41
HETATM   41  O6  UNL     1      11.986  10.389  19.704  1.00  0.00    -0.776 OA
HETATM   42  H22 UNL     1      12.286  10.835  20.524  1.00  0.00     0.167 HD
ENDBRANCH  39  41
ENDBRANCH  38  39
ENDBRANCH  37  38
BRANCH  37  43
HETATM   43  C20 UNL     1       7.774  10.790  18.349  1.00  0.00     0.164 C 
HETATM   44  O7  UNL     1       7.186  11.298  19.291  1.00  0.00    -0.648 OA
BRANCH  43  45
HETATM   45  O8  UNL     1       7.325   9.632  17.820  1.00  0.00    -0.775 OA
HETATM   46  H23 UNL     1       6.555   9.404  18.384  1.00  0.00     0.167 HD
ENDBRANCH  43  45
ENDBRANCH  37  43
ENDBRANCH  35  37
ENDBRANCH  32  33
BRANCH  32  47
HETATM   47  C21 UNL     1       9.321  12.421  13.084  1.00  0.00     0.009 C 
HETATM   48  C22 UNL     1       9.300  11.449  11.902  1.00  0.00     0.012 C 
HETATM   49  C23 UNL     1       9.465  13.858  12.577  1.00  0.00     0.012 C 
ENDBRANCH  32  47
ENDBRANCH  30  32
ENDBRANCH  27  28
ENDBRANCH  26  27
ENDBRANCH  13  26
TORSDOF 13
ENDMDL
