MODEL 1
REMARK minimizedAffinity -8.8161726
REMARK CNNscore 0.677256405
REMARK CNNaffinity 6.63701773
REMARK  4 active torsions:
REMARK  status: ('A' for Active; 'I' for Inactive)
REMARK    1  A    between atoms: C3_3  and  C4_4 
REMARK    2  A    between atoms: C4_4  and  O1_5 
REMARK    3  A    between atoms: C6_9  and  C7_10 
REMARK    4  A    between atoms: C7_10  and  C9_12 
ROOT
HETATM    1  C9  UNL     1       0.572  10.531  18.078  1.00  0.00     0.000 C 
HETATM    2  C10 UNL     1      -0.641  11.369  18.578  1.00  0.00     0.006 C 
HETATM    3  C11 UNL     1      -1.847  10.997  17.703  1.00  0.00     0.006 C 
HETATM    4  C12 UNL     1      -1.347   9.820  16.878  1.00  0.00    -0.001 C 
HETATM    5  C13 UNL     1      -2.115   9.437  15.605  1.00  0.00     0.000 C 
HETATM    6  C14 UNL     1      -3.622   9.253  15.845  1.00  0.00     0.010 C 
HETATM    7  C15 UNL     1      -4.360   8.926  14.547  1.00  0.00     0.036 C 
HETATM    8  C16 UNL     1      -3.723   7.780  13.794  1.00  0.00    -0.063 A 
HETATM    9  C17 UNL     1      -4.466   6.721  13.424  1.00  0.00     0.058 A 
HETATM   10  C18 UNL     1      -3.880   5.561  12.719  1.00  0.00     0.172 A 
HETATM   11  O4  UNL     1      -4.573   4.619  12.353  1.00  0.00    -0.289 OA
HETATM   12  C19 UNL     1      -2.426   5.577  12.482  1.00  0.00     0.052 A 
HETATM   13  C20 UNL     1      -1.680   6.627  12.849  1.00  0.00    -0.008 A 
HETATM   14  C21 UNL     1      -2.213   7.890  13.524  1.00  0.00     0.005 A 
HETATM   15  C22 UNL     1      -1.999   9.012  12.477  1.00  0.00     0.025 C 
HETATM   16  C23 UNL     1      -1.471   8.168  14.917  1.00  0.00    -0.025 C 
HETATM   17  C24 UNL     1      -1.618   6.902  15.827  1.00  0.00     0.017 C 
HETATM   18  C25 UNL     1       0.063   8.418  14.741  1.00  0.00     0.012 C 
HETATM   19  C26 UNL     1       0.794   8.904  16.012  1.00  0.00     0.011 C 
HETATM   20  C27 UNL     1       0.147  10.163  16.618  1.00  0.00    -0.036 C 
HETATM   21  C28 UNL     1       0.360  11.370  15.669  1.00  0.00     0.016 C 
ENDROOT
BRANCH   1  22
HETATM   22  C7  UNL     1       1.942  11.233  18.344  1.00  0.00     0.016 C 
HETATM   23  C8  UNL     1       3.009  10.758  17.343  1.00  0.00     0.013 C 
BRANCH  22  24
HETATM   24  C6  UNL     1       2.516  10.999  19.779  1.00  0.00     0.140 C 
HETATM   25  O3  UNL     1       2.042   9.742  20.292  1.00  0.00    -0.311 OA
HETATM   26  C5  UNL     1       2.311   9.385  21.572  1.00  0.00     0.292 C 
HETATM   27  C3  UNL     1       2.865  10.436  22.472  1.00  0.00     0.042 C 
HETATM   28  O2  UNL     1       2.089   8.247  21.966  1.00  0.00    -0.260 OA
HETATM   29  C2  UNL     1       2.799  11.738  22.113  1.00  0.00    -0.067 C 
HETATM   30  C1  UNL     1       3.265  12.888  22.961  1.00  0.00     0.044 C 
HETATM   31  C29 UNL     1       2.224  12.121  20.772  1.00  0.00     0.067 C 
BRANCH  27  32
HETATM   32  C4  UNL     1       3.467   9.920  23.748  1.00  0.00     0.209 C 
BRANCH  32  33
HETATM   33  O1  UNL     1       2.469   9.568  24.699  1.00  0.00    -0.396 OA
HETATM   34  H6  UNL     1       1.594   9.774  24.324  1.00  0.00     0.209 HD
ENDBRANCH  32  33
ENDBRANCH  27  32
ENDBRANCH  22  24
ENDBRANCH   1  22
TORSDOF 4
ENDMDL
