MODEL 1
REMARK minimizedAffinity -7.34945154
REMARK CNNscore 0.786685944
REMARK CNNaffinity 7.29736853
REMARK  6 active torsions:
REMARK  status: ('A' for Active; 'I' for Inactive)
REMARK    1  A    between atoms: C2_2  and  C30_31 
REMARK    2  A    between atoms: C3_3  and  C4_4 
REMARK    3  A    between atoms: C4_4  and  C5_5 
REMARK    4  A    between atoms: C5_5  and  C6_6 
REMARK    5  A    between atoms: C6_6  and  C8_8 
REMARK    6  A    between atoms: C30_31  and  O3_33 
ROOT
HETATM    1  C8  UNL     1       4.924  54.912  -8.783  1.00  0.00    -0.002 C 
HETATM    2  C9  UNL     1       4.397  56.326  -8.429  1.00  0.00     0.007 C 
HETATM    3  C10 UNL     1       2.900  56.345  -8.805  1.00  0.00     0.015 C 
HETATM    4  C11 UNL     1       2.679  55.072  -9.657  1.00  0.00    -0.013 C 
HETATM    5  C12 UNL     1       3.081  55.455 -11.113  1.00  0.00     0.021 C 
HETATM    6  C13 UNL     1       1.287  54.476  -9.736  1.00  0.00    -0.070 C 
HETATM    7  C14 UNL     1       0.167  55.131  -9.398  1.00  0.00    -0.022 C 
HETATM    8  C15 UNL     1      -1.161  54.452  -9.461  1.00  0.00     0.034 C 
HETATM    9  C16 UNL     1      -1.327  53.646 -10.773  1.00  0.00     0.013 C 
HETATM   10  C17 UNL     1      -2.732  52.938 -10.862  1.00  0.00     0.018 C 
HETATM   11  C18 UNL     1      -3.116  52.604 -12.317  1.00  0.00     0.023 C 
HETATM   12  C19 UNL     1      -3.865  53.839 -10.317  1.00  0.00     0.023 C 
HETATM   13  C20 UNL     1      -2.732  51.634 -10.057  1.00  0.00     0.135 C 
HETATM   14  O1  UNL     1      -3.770  51.147  -9.603  1.00  0.00    -0.297 OA
HETATM   15  C21 UNL     1      -1.412  50.943  -9.816  1.00  0.00     0.080 C 
HETATM   16  C22 UNL     1      -0.447  51.206 -10.959  1.00  0.00     0.017 C 
HETATM   17  C23 UNL     1      -0.066  52.710 -11.080  1.00  0.00    -0.031 C 
HETATM   18  C24 UNL     1       0.362  52.972 -12.549  1.00  0.00     0.016 C 
HETATM   19  C25 UNL     1       1.165  52.999 -10.102  1.00  0.00     0.024 C 
HETATM   20  C26 UNL     1       2.513  52.341 -10.527  1.00  0.00     0.010 C 
HETATM   21  C27 UNL     1       3.793  52.786  -9.781  1.00  0.00     0.011 C 
HETATM   22  C28 UNL     1       3.627  54.057  -8.929  1.00  0.00    -0.029 C 
HETATM   23  C29 UNL     1       3.108  53.617  -7.529  1.00  0.00     0.016 C 
ENDROOT
BRANCH   1  24
HETATM   24  C6  UNL     1       6.093  54.362  -7.909  1.00  0.00    -0.014 C 
HETATM   25  C7  UNL     1       6.013  55.033  -6.524  1.00  0.00     0.010 C 
BRANCH  24  26
HETATM   26  C5  UNL     1       6.120  52.821  -7.747  1.00  0.00     0.008 C 
BRANCH  26  27
HETATM   27  C4  UNL     1       7.020  52.073  -8.744  1.00  0.00     0.028 C 
BRANCH  27  28
HETATM   28  C3  UNL     1       7.475  50.711  -8.300  1.00  0.00    -0.013 C 
HETATM   29  C2  UNL     1       7.627  49.594  -9.041  1.00  0.00     0.008 C 
HETATM   30  C1  UNL     1       8.081  48.306  -8.410  1.00  0.00     0.055 C 
BRANCH  29  31
HETATM   31  C30 UNL     1       7.333  49.564 -10.499  1.00  0.00     0.171 C 
HETATM   32  O2  UNL     1       6.286  49.843 -11.055  1.00  0.00    -0.646 OA
BRANCH  31  33
HETATM   33  O3  UNL     1       8.399  49.171 -11.220  1.00  0.00    -0.773 OA
HETATM   34  H46 UNL     1       8.066  49.189 -12.141  1.00  0.00     0.167 HD
ENDBRANCH  31  33
ENDBRANCH  29  31
ENDBRANCH  27  28
ENDBRANCH  26  27
ENDBRANCH  24  26
ENDBRANCH   1  24
TORSDOF 6
ENDMDL
