MODEL 1
REMARK minimizedAffinity -9.96953678
REMARK CNNscore 0.586064458
REMARK CNNaffinity 6.58740854
REMARK  11 active torsions:
REMARK  status: ('A' for Active; 'I' for Inactive)
REMARK    1  A    between atoms: C19_20  and  O2_21 
REMARK    2  A    between atoms: C19_20  and  C20_22 
REMARK    3  A    between atoms: C20_22  and  C21_24 
REMARK    4  A    between atoms: C21_24  and  O4_25 
REMARK    5  A    between atoms: O4_25  and  C22_26 
REMARK    6  A    between atoms: C22_26  and  C23_28 
REMARK    7  A    between atoms: C23_28  and  C24_29 
REMARK    8  A    between atoms: C24_29  and  C25_30 
REMARK       I    between atoms: C25_30  and  N1_32 
REMARK    9  A    between atoms: N1_32  and  C26_33 
REMARK   10  A    between atoms: C26_33  and  C27_34 
REMARK   11  A    between atoms: C27_34  and  C28_35 
ROOT
HETATM    1  C20 UNL     1     -10.267  47.845 -27.359  1.00  0.00     0.185 C 
HETATM    2  O3  UNL     1      -9.784  48.238 -26.293  1.00  0.00    -0.292 OA
ENDROOT
BRANCH   1   3
HETATM    3  C19 UNL     1     -11.776  47.608 -27.576  1.00  0.00     0.128 C 
HETATM    4  C14 UNL     1     -12.528  46.558 -26.685  1.00  0.00    -0.002 C 
HETATM    5  C13 UNL     1     -12.968  47.014 -25.277  1.00  0.00     0.013 C 
HETATM    6  C15 UNL     1     -11.728  45.236 -26.531  1.00  0.00     0.019 C 
HETATM    7  C16 UNL     1     -13.786  46.358 -27.570  1.00  0.00     0.002 C 
HETATM    8  C12 UNL     1     -14.487  46.934 -25.033  1.00  0.00     0.007 C 
HETATM    9  C11 UNL     1     -15.131  45.606 -25.526  1.00  0.00     0.002 C 
HETATM   10  C2  UNL     1     -16.651  45.369 -25.068  1.00  0.00    -0.016 C 
HETATM   11  C10 UNL     1     -14.776  45.316 -27.031  1.00  0.00    -0.004 C 
HETATM   12  C1  UNL     1     -16.656  44.147 -24.109  1.00  0.00     0.020 C 
HETATM   13  C3  UNL     1     -17.229  46.592 -24.300  1.00  0.00     0.022 C 
HETATM   14  C7  UNL     1     -17.613  45.039 -26.213  1.00  0.00    -0.068 C 
HETATM   15  C4  UNL     1     -18.699  46.472 -23.916  1.00  0.00     0.084 C 
HETATM   16  C5  UNL     1     -19.546  46.101 -25.102  1.00  0.00     0.149 C 
HETATM   17  O1  UNL     1     -20.751  46.338 -25.142  1.00  0.00    -0.293 OA
HETATM   18  C6  UNL     1     -18.913  45.386 -26.231  1.00  0.00     0.053 C 
HETATM   19  C8  UNL     1     -17.042  44.306 -27.392  1.00  0.00     0.035 C 
HETATM   20  C9  UNL     1     -15.966  45.186 -27.987  1.00  0.00     0.010 C 
HETATM   21  C17 UNL     1     -13.217  46.149 -28.971  1.00  0.00     0.009 C 
HETATM   22  C18 UNL     1     -11.991  47.071 -29.021  1.00  0.00     0.047 C 
BRANCH   3  23
HETATM   23  O2  UNL     1     -12.441  48.883 -27.518  1.00  0.00    -0.381 OA
HETATM   24  H27 UNL     1     -12.429  49.206 -26.601  1.00  0.00     0.211 HD
ENDBRANCH   3  23
ENDBRANCH   1   3
BRANCH   1  25
HETATM   25  C21 UNL     1      -9.365  47.508 -28.556  1.00  0.00     0.260 C 
BRANCH  25  26
HETATM   26  O4  UNL     1      -8.269  48.407 -28.697  1.00  0.00    -0.314 OA
BRANCH  26  27
HETATM   27  C22 UNL     1      -7.137  47.825 -29.195  1.00  0.00     0.259 C 
HETATM   28  O5  UNL     1      -6.941  47.580 -30.379  1.00  0.00    -0.265 OA
BRANCH  27  29
HETATM   29  C23 UNL     1      -6.153  47.570 -28.083  1.00  0.00     0.120 C 
BRANCH  29  30
HETATM   30  C24 UNL     1      -4.802  48.206 -28.405  1.00  0.00     0.112 C 
BRANCH  30  31
HETATM   31  C25 UNL     1      -4.064  48.685 -27.170  1.00  0.00     0.218 C 
HETATM   32  O6  UNL     1      -4.292  48.264 -26.044  1.00  0.00    -0.274 OA
HETATM   33  N1  UNL     1      -3.175  49.709 -27.439  1.00  0.00    -0.361 N 
HETATM   34  H34 UNL     1      -2.908  49.847 -28.404  1.00  0.00     0.162 HD
BRANCH  33  35
HETATM   35  C26 UNL     1      -2.233  50.166 -26.428  1.00  0.00     0.127 C 
BRANCH  35  36
HETATM   36  C27 UNL     1      -1.031  50.909 -27.030  1.00  0.00     0.060 C 
BRANCH  36  37
HETATM   37  C28 UNL     1      -0.266  51.702 -26.016  1.00  0.00    -0.029 A 
HETATM   38  C29 UNL     1       0.643  52.706 -26.287  1.00  0.00     0.096 A 
HETATM   39  N2  UNL     1       1.040  53.257 -25.102  1.00  0.00    -0.365 N 
HETATM   40  C30 UNL     1       0.444  52.606 -24.048  1.00  0.00     0.042 A 
HETATM   41  H40 UNL     1       1.655  54.054 -25.010  1.00  0.00     0.165 HD
HETATM   42  C31 UNL     1       0.561  52.830 -22.671  1.00  0.00     0.030 A 
HETATM   43  C35 UNL     1      -0.374  51.612 -24.588  1.00  0.00    -0.002 A 
HETATM   44  C32 UNL     1      -0.178  52.009 -21.815  1.00  0.00     0.002 A 
HETATM   45  C33 UNL     1      -0.999  51.003 -22.322  1.00  0.00     0.001 A 
HETATM   46  C34 UNL     1      -1.110  50.795 -23.703  1.00  0.00     0.014 A 
ENDBRANCH  36  37
ENDBRANCH  35  36
ENDBRANCH  33  35
ENDBRANCH  30  31
ENDBRANCH  29  30
ENDBRANCH  27  29
ENDBRANCH  26  27
ENDBRANCH  25  26
ENDBRANCH   1  25
TORSDOF 11
ENDMDL
