MODEL 1
REMARK minimizedAffinity -8.51104641
REMARK  13 active torsions:
REMARK  status: ('A' for Active; 'I' for Inactive)
REMARK    1  A    between atoms: C4_4  and  C5_5 
REMARK    2  A    between atoms: C5_5  and  C6_6 
REMARK    3  A    between atoms: C6_6  and  C7_7 
REMARK    4  A    between atoms: C9_9  and  C10_10 
REMARK    5  A    between atoms: C11_11  and  C12_12 
REMARK    6  A    between atoms: C14_14  and  C15_15 
REMARK    7  A    between atoms: C18_18  and  O1_19 
REMARK    8  A    between atoms: C19_21  and  C20_22 
REMARK    9  A    between atoms: C20_22  and  C21_23 
REMARK   10  A    between atoms: C21_23  and  C22_24 
REMARK   11  A    between atoms: C22_24  and  O3_25 
REMARK   12  A    between atoms: C24_27  and  C26_29 
REMARK   13  A    between atoms: C29_33  and  O5_35 
ROOT
HETATM    1  C15 UNL     1      -7.472  46.872 -27.630  1.00  0.00     0.149 C 
HETATM    2  C16 UNL     1      -6.918  46.200 -28.883  1.00  0.00     0.054 C 
HETATM    3  C17 UNL     1      -7.909  46.555 -30.013  1.00  0.00     0.050 C 
HETATM    4  C18 UNL     1      -8.445  47.900 -29.476  1.00  0.00     0.270 C 
HETATM    5  O2  UNL     1      -8.471  47.810 -28.054  1.00  0.00    -0.351 OA
HETATM    6  C19 UNL     1      -7.120  46.724 -31.367  1.00  0.00     0.032 C 
HETATM    7  C23 UNL     1      -6.593  45.364 -31.860  1.00  0.00    -0.066 C 
HETATM    8  C24 UNL     1      -5.293  45.041 -32.090  1.00  0.00    -0.021 C 
HETATM    9  C25 UNL     1      -4.835  43.718 -32.658  1.00  0.00     0.052 C 
HETATM   10  C27 UNL     1      -7.713  44.350 -32.042  1.00  0.00     0.038 C 
HETATM   11  C28 UNL     1      -8.517  44.166 -30.756  1.00  0.00     0.042 C 
HETATM   12  C29 UNL     1      -9.057  45.486 -30.166  1.00  0.00     0.067 C 
HETATM   13  C30 UNL     1      -9.837  45.152 -28.885  1.00  0.00     0.047 C 
ENDROOT
BRANCH   4  14
HETATM   14  O1  UNL     1      -7.579  48.985 -29.789  1.00  0.00    -0.370 OA
HETATM   15  H26 UNL     1      -8.020  49.750 -29.374  1.00  0.00     0.212 HD
ENDBRANCH   4  14
BRANCH   6  16
HETATM   16  C20 UNL     1      -7.907  47.462 -32.488  1.00  0.00     0.012 C 
BRANCH  16  17
HETATM   17  C21 UNL     1      -7.500  47.065 -33.916  1.00  0.00     0.027 C 
BRANCH  17  18
HETATM   18  C22 UNL     1      -6.300  47.820 -34.485  1.00  0.00     0.164 C 
BRANCH  18  19
HETATM   19  O3  UNL     1      -6.440  48.052 -35.879  1.00  0.00    -0.401 OA
HETATM   20  H34 UNL     1      -7.109  48.758 -35.990  1.00  0.00     0.209 HD
ENDBRANCH  18  19
ENDBRANCH  17  18
ENDBRANCH  16  17
ENDBRANCH   6  16
BRANCH  12  21
HETATM   21  O5  UNL     1     -10.030  46.008 -31.086  1.00  0.00    -0.389 OA
HETATM   22  H46 UNL     1     -10.736  45.349 -31.202  1.00  0.00     0.210 HD
ENDBRANCH  12  21
BRANCH   1  23
HETATM   23  C14 UNL     1      -6.430  47.617 -26.846  1.00  0.00     0.011 C 
HETATM   24  C12 UNL     1      -5.234  48.065 -27.285  1.00  0.00    -0.063 C 
HETATM   25  C13 UNL     1      -4.765  47.920 -28.710  1.00  0.00     0.048 C 
BRANCH  24  26
HETATM   26  C11 UNL     1      -4.349  48.740 -26.335  1.00  0.00     0.006 C 
HETATM   27  C10 UNL     1      -3.060  49.062 -26.533  1.00  0.00     0.001 C 
BRANCH  27  28
HETATM   28  C9  UNL     1      -2.255  49.716 -25.521  1.00  0.00     0.002 C 
HETATM   29  C7  UNL     1      -2.217  51.037 -25.250  1.00  0.00    -0.084 C 
HETATM   30  C8  UNL     1      -3.077  52.080 -25.914  1.00  0.00     0.043 C 
BRANCH  29  31
HETATM   31  C6  UNL     1      -1.290  51.554 -24.159  1.00  0.00     0.037 C 
BRANCH  31  32
HETATM   32  C5  UNL     1      -0.335  52.670 -24.606  1.00  0.00     0.031 C 
BRANCH  32  33
HETATM   33  C4  UNL     1       0.965  52.174 -25.181  1.00  0.00    -0.024 C 
HETATM   34  C2  UNL     1       1.271  51.998 -26.481  1.00  0.00    -0.091 C 
HETATM   35  C1  UNL     1       0.328  52.238 -27.626  1.00  0.00     0.042 C 
HETATM   36  C3  UNL     1       2.637  51.513 -26.891  1.00  0.00     0.042 C 
ENDBRANCH  32  33
ENDBRANCH  31  32
ENDBRANCH  29  31
ENDBRANCH  27  28
ENDBRANCH  24  26
ENDBRANCH   1  23
BRANCH   8  37
HETATM   37  C26 UNL     1      -4.157  45.977 -31.807  1.00  0.00     0.265 C 
HETATM   38  O4  UNL     1      -3.741  46.788 -32.627  1.00  0.00    -0.302 OA
ENDBRANCH   8  37
TORSDOF 13
ENDMDL
