MODEL 1
REMARK minimizedAffinity -10.5271168
REMARK CNNscore 0.33637926
REMARK CNNaffinity 7.04507208
REMARK  11 active torsions:
REMARK  status: ('A' for Active; 'I' for Inactive)
REMARK    1  A    between atoms: C3_3  and  O1_4 
REMARK    2  A    between atoms: N1_14  and  O2_16 
REMARK    3  A    between atoms: O2_16  and  C13_17 
REMARK    4  A    between atoms: C13_17  and  C14_18 
REMARK       I    between atoms: C14_18  and  N2_20 
REMARK    5  A    between atoms: N2_20  and  C15_21 
REMARK    6  A    between atoms: C15_21  and  C16_22 
REMARK    7  A    between atoms: C15_21  and  C19_27 
REMARK    8  A    between atoms: C16_22  and  O5_24 
REMARK    9  A    between atoms: O5_24  and  C17_25 
REMARK   10  A    between atoms: C19_27  and  O6_28 
REMARK   11  A    between atoms: C19_27  and  C20_29 
ROOT
HETATM    1  C1  UNL     1       6.094   9.656  10.506  1.00  0.00     0.015 C 
HETATM    2  C2  UNL     1       5.473   8.632  10.605  1.00  0.00    -0.078 C 
HETATM    3  C3  UNL     1       4.726   7.360  10.738  1.00  0.00     0.128 C 
HETATM    4  C4  UNL     1       4.292   7.177  12.192  1.00  0.00     0.052 C 
HETATM    5  C5  UNL     1       2.966   7.928  12.314  1.00  0.00     0.010 C 
HETATM    6  C6  UNL     1       2.436   8.144  10.880  1.00  0.00     0.002 C 
HETATM    7  C7  UNL     1       0.940   7.825  10.687  1.00  0.00    -0.004 C 
HETATM    8  C8  UNL     1       0.042   8.782  11.481  1.00  0.00     0.010 C 
HETATM    9  C9  UNL     1      -1.386   8.270  11.551  1.00  0.00     0.035 C 
HETATM   10  C10 UNL     1      -1.357   7.024  12.388  1.00  0.00    -0.069 C 
HETATM   11  C11 UNL     1      -1.968   7.008  13.586  1.00  0.00     0.030 C 
HETATM   12  C12 UNL     1      -1.870   5.837  14.504  1.00  0.00     0.032 C 
HETATM   13  N1  UNL     1      -2.524   5.686  15.616  1.00  0.00    -0.271 N 
ATOM     14  H1  UNL     1      -2.431   4.872  16.223  1.00  0.00     0.194 HD
HETATM   15  C26 UNL     1      -0.941   4.706  14.111  1.00  0.00     0.060 C 
HETATM   16  C27 UNL     1       0.085   5.117  13.060  1.00  0.00     0.020 C 
HETATM   17  C28 UNL     1      -0.530   5.864  11.846  1.00  0.00    -0.016 C 
HETATM   18  C29 UNL     1      -1.507   4.901  11.115  1.00  0.00     0.020 C 
HETATM   19  C30 UNL     1       0.564   6.313  10.780  1.00  0.00     0.002 C 
HETATM   20  C31 UNL     1       1.803   5.397  10.716  1.00  0.00     0.007 C 
HETATM   21  C32 UNL     1       2.830   5.885   9.698  1.00  0.00     0.014 C 
HETATM   22  C33 UNL     1       3.375   7.327   9.947  1.00  0.00     0.003 C 
HETATM   23  C34 UNL     1       3.503   7.991   8.556  1.00  0.00     0.020 C 
ENDROOT
BRANCH   3  24
HETATM   24  O1  UNL     1       5.597   6.302  10.364  1.00  0.00    -0.377 OA
HETATM   25  H2  UNL     1       5.954   6.526   9.488  1.00  0.00     0.211 HD
ENDBRANCH   3  24
BRANCH  13  26
HETATM   26  O2  UNL     1      -3.371   6.771  15.887  1.00  0.00    -0.271 OA
BRANCH  26  27
HETATM   27  C13 UNL     1      -4.273   6.926  14.795  1.00  0.00     0.303 C 
BRANCH  27  28
HETATM   28  C14 UNL     1      -5.613   6.250  15.075  1.00  0.00     0.244 C 
HETATM   29  O3  UNL     1      -6.010   6.023  16.216  1.00  0.00    -0.271 OA
HETATM   30  N2  UNL     1      -6.356   5.937  13.964  1.00  0.00    -0.343 N 
HETATM   31  H16 UNL     1      -6.035   6.282  13.064  1.00  0.00     0.163 HD
BRANCH  30  32
HETATM   32  C15 UNL     1      -7.696   5.349  14.067  1.00  0.00     0.217 C 
BRANCH  32  33
HETATM   33  C16 UNL     1      -8.599   6.007  13.024  1.00  0.00     0.284 C 
HETATM   34  O4  UNL     1      -8.599   5.719  11.832  1.00  0.00    -0.263 OA
BRANCH  33  35
HETATM   35  O5  UNL     1      -9.413   6.928  13.609  1.00  0.00    -0.320 OA
BRANCH  35  36
HETATM   36  C17 UNL     1     -10.756   6.987  13.110  1.00  0.00     0.174 C 
HETATM   37  C18 UNL     1     -11.735   6.627  14.212  1.00  0.00     0.034 C 
ENDBRANCH  35  36
ENDBRANCH  33  35
ENDBRANCH  32  33
BRANCH  32  38
HETATM   38  C19 UNL     1      -7.679   3.832  13.778  1.00  0.00     0.183 C 
BRANCH  38  39
HETATM   39  O6  UNL     1      -8.950   3.410  13.252  1.00  0.00    -0.388 OA
HETATM   40  H24 UNL     1      -8.784   2.665  12.647  1.00  0.00     0.210 HD
ENDBRANCH  38  39
BRANCH  38  41
HETATM   41  C20 UNL     1      -6.583   3.403  12.821  1.00  0.00    -0.027 A 
HETATM   42  C21 UNL     1      -5.423   4.176  12.657  1.00  0.00     0.010 A 
HETATM   43  C22 UNL     1      -4.417   3.768  11.781  1.00  0.00     0.001 A 
HETATM   44  C23 UNL     1      -4.559   2.587  11.056  1.00  0.00     0.000 A 
HETATM   45  C24 UNL     1      -5.707   1.812  11.207  1.00  0.00     0.001 A 
HETATM   46  C25 UNL     1      -6.715   2.216  12.084  1.00  0.00     0.010 A 
ENDBRANCH  38  41
ENDBRANCH  32  38
ENDBRANCH  30  32
ENDBRANCH  27  28
ENDBRANCH  26  27
ENDBRANCH  13  26
TORSDOF 11
ENDMDL
