MODEL 1
REMARK minimizedAffinity -7.13726425
REMARK CNNscore 0.55631566
REMARK CNNaffinity 6.94213295
REMARK  9 active torsions:
REMARK  status: ('A' for Active; 'I' for Inactive)
REMARK    1  A    between atoms: C2_2  and  C3_3 
REMARK    2  A    between atoms: C2_2  and  C9_12 
REMARK    3  A    between atoms: C3_3  and  C4_4 
REMARK    4  A    between atoms: C4_4  and  C5_5 
REMARK    5  A    between atoms: C5_5  and  O1_6 
REMARK    6  A    between atoms: C5_5  and  C6_7 
REMARK    7  A    between atoms: C6_7  and  O2_9 
REMARK    8  A    between atoms: C6_7  and  C8_10 
REMARK    9  A    between atoms: C8_10  and  O3_11 
ROOT
HETATM    1  C9  UNL     1      -9.880  -7.534  -4.113  1.00  0.00    -0.002 C 
HETATM    2  C10 UNL     1     -11.200  -7.645  -3.313  1.00  0.00     0.007 C 
HETATM    3  C11 UNL     1     -10.844  -8.308  -1.959  1.00  0.00     0.015 C 
HETATM    4  C12 UNL     1      -9.301  -8.284  -1.879  1.00  0.00    -0.005 C 
HETATM    5  C13 UNL     1      -8.901  -6.881  -1.327  1.00  0.00     0.021 C 
HETATM    6  C14 UNL     1      -8.534  -9.267  -1.004  1.00  0.00    -0.000 C 
HETATM    7  C15 UNL     1      -7.275  -9.664  -1.333  1.00  0.00    -0.060 C 
HETATM    8  C16 UNL     1      -6.612  -9.185  -2.635  1.00  0.00     0.036 C 
HETATM    9  C17 UNL     1      -7.450  -8.307  -3.587  1.00  0.00     0.015 C 
HETATM   10  C18 UNL     1      -8.949  -8.550  -3.392  1.00  0.00    -0.028 C 
HETATM   11  C19 UNL     1      -9.268 -10.005  -3.853  1.00  0.00     0.016 C 
HETATM   12  C20 UNL     1      -6.460 -10.667  -0.470  1.00  0.00    -0.014 C 
HETATM   13  C21 UNL     1      -6.744 -12.061  -1.075  1.00  0.00     0.020 C 
HETATM   14  C22 UNL     1      -4.938 -10.376  -0.531  1.00  0.00     0.021 C 
HETATM   15  C23 UNL     1      -4.114 -11.251   0.400  1.00  0.00     0.080 C 
HETATM   16  C24 UNL     1      -4.573 -11.101   1.827  1.00  0.00     0.135 C 
HETATM   17  O4  UNL     1      -3.741 -10.956   2.725  1.00  0.00    -0.297 OA
HETATM   18  C25 UNL     1      -6.073 -11.258   2.117  1.00  0.00     0.018 C 
HETATM   19  C26 UNL     1      -6.352 -10.616   3.501  1.00  0.00     0.023 C 
HETATM   20  C27 UNL     1      -6.376 -12.758   2.249  1.00  0.00     0.023 C 
HETATM   21  C28 UNL     1      -6.907 -10.501   1.023  1.00  0.00     0.020 C 
HETATM   22  C29 UNL     1      -8.419 -10.714   1.146  1.00  0.00     0.090 C 
HETATM   23  C30 UNL     1      -9.180  -9.759   0.256  1.00  0.00     0.157 C 
HETATM   24  O5  UNL     1     -10.321  -9.420   0.564  1.00  0.00    -0.293 OA
ENDROOT
BRANCH   1  25
HETATM   25  C2  UNL     1      -9.988  -7.594  -5.668  1.00  0.00    -0.014 C 
HETATM   26  C1  UNL     1     -11.417  -7.625  -6.225  1.00  0.00     0.010 C 
BRANCH  25  27
HETATM   27  C3  UNL     1      -9.225  -6.387  -6.274  1.00  0.00     0.007 C 
BRANCH  27  28
HETATM   28  C4  UNL     1      -9.876  -5.004  -6.137  1.00  0.00     0.035 C 
BRANCH  28  29
HETATM   29  C5  UNL     1      -9.366  -4.030  -5.063  1.00  0.00     0.154 C 
BRANCH  29  30
HETATM   30  O1  UNL     1      -9.961  -4.346  -3.796  1.00  0.00    -0.392 OA
HETATM   31  H10 UNL     1      -9.749  -3.598  -3.204  1.00  0.00     0.210 HD
ENDBRANCH  29  30
BRANCH  29  32
HETATM   32  C6  UNL     1      -9.414  -2.490  -5.297  1.00  0.00     0.101 C 
HETATM   33  C7  UNL     1      -9.814  -2.078  -6.718  1.00  0.00     0.051 C 
BRANCH  32  34
HETATM   34  O2  UNL     1     -10.503  -2.001  -4.462  1.00  0.00    -0.385 OA
HETATM   35  H14 UNL     1     -10.302  -2.241  -3.538  1.00  0.00     0.210 HD
ENDBRANCH  32  34
BRANCH  32  36
HETATM   36  C8  UNL     1      -8.126  -1.766  -4.854  1.00  0.00     0.204 C 
BRANCH  36  37
HETATM   37  O3  UNL     1      -6.950  -2.470  -5.214  1.00  0.00    -0.398 OA
HETATM   38  H17 UNL     1      -6.191  -1.899  -5.000  1.00  0.00     0.209 HD
ENDBRANCH  36  37
ENDBRANCH  32  36
ENDBRANCH  29  32
ENDBRANCH  28  29
ENDBRANCH  27  28
ENDBRANCH  25  27
ENDBRANCH   1  25
TORSDOF 9
ENDMDL
