MODEL 1
REMARK minimizedAffinity -9.46235466
REMARK  4 active torsions:
REMARK  status: ('A' for Active; 'I' for Inactive)
REMARK    1  A    between atoms: C4_4  and  C5_5 
REMARK    2  A    between atoms: C5_5  and  C6_6 
REMARK    3  A    between atoms: C6_6  and  C7_7 
REMARK    4  A    between atoms: C7_7  and  C9_9 
ROOT
HETATM    1  C9  UNL     1       0.213   7.078  10.247  1.00  0.00    -0.002 C 
HETATM    2  C10 UNL     1      -0.227   8.525  10.500  1.00  0.00     0.006 C 
HETATM    3  C11 UNL     1      -1.117   8.435  11.724  1.00  0.00     0.011 C 
HETATM    4  C12 UNL     1      -0.350   7.499  12.686  1.00  0.00    -0.032 C 
HETATM    5  C13 UNL     1       0.697   8.389  13.426  1.00  0.00     0.016 C 
HETATM    6  C14 UNL     1      -1.295   6.851  13.779  1.00  0.00     0.004 C 
HETATM    7  C15 UNL     1      -2.090   7.927  14.552  1.00  0.00     0.007 C 
HETATM    8  C16 UNL     1      -3.097   7.356  15.538  1.00  0.00     0.007 C 
HETATM    9  C17 UNL     1      -4.209   6.516  14.886  1.00  0.00     0.010 C 
HETATM   10  C18 UNL     1      -5.473   7.310  14.403  1.00  0.00     0.018 C 
HETATM   11  C19 UNL     1      -6.140   8.045  15.586  1.00  0.00     0.023 C 
HETATM   12  C20 UNL     1      -5.183   8.330  13.293  1.00  0.00     0.023 C 
HETATM   13  C21 UNL     1      -6.519   6.320  13.858  1.00  0.00     0.135 C 
HETATM   14  O1  UNL     1      -7.698   6.641  13.688  1.00  0.00    -0.297 OA
HETATM   15  C22 UNL     1      -6.072   4.915  13.549  1.00  0.00     0.080 C 
HETATM   16  C23 UNL     1      -4.710   4.969  12.888  1.00  0.00     0.018 C 
HETATM   17  C24 UNL     1      -3.654   5.566  13.809  1.00  0.00    -0.026 A 
HETATM   18  C25 UNL     1      -2.552   4.635  14.257  1.00  0.00     0.021 A 
HETATM   19  C26 UNL     1      -2.218   5.732  13.259  1.00  0.00    -0.027 A 
HETATM   20  C27 UNL     1      -1.885   5.225  11.872  1.00  0.00     0.011 C 
HETATM   21  C28 UNL     1      -0.380   5.079  11.728  1.00  0.00     0.011 C 
HETATM   22  C29 UNL     1       0.355   6.445  11.704  1.00  0.00    -0.032 C 
HETATM   23  C30 UNL     1       1.817   6.155  12.112  1.00  0.00     0.016 C 
ENDROOT
BRANCH   1  24
HETATM   24  C7  UNL     1       1.410   6.956   9.248  1.00  0.00    -0.014 C 
HETATM   25  C8  UNL     1       1.457   8.158   8.290  1.00  0.00     0.010 C 
BRANCH  24  26
HETATM   26  C6  UNL     1       2.770   6.833   9.992  1.00  0.00     0.008 C 
BRANCH  26  27
HETATM   27  C5  UNL     1       3.501   5.501   9.758  1.00  0.00     0.028 C 
BRANCH  27  28
HETATM   28  C4  UNL     1       3.324   5.037   8.336  1.00  0.00    -0.025 C 
HETATM   29  C2  UNL     1       3.945   4.022   7.704  1.00  0.00    -0.091 C 
HETATM   30  C1  UNL     1       3.620   3.711   6.264  1.00  0.00     0.042 C 
HETATM   31  C3  UNL     1       4.980   3.111   8.305  1.00  0.00     0.042 C 
ENDBRANCH  27  28
ENDBRANCH  26  27
ENDBRANCH  24  26
ENDBRANCH   1  24
TORSDOF 4
ENDMDL
