MODEL 1
REMARK minimizedAffinity -9.24782467
REMARK CNNscore 0.496630311
REMARK CNNaffinity 7.15079641
REMARK  13 active torsions:
REMARK  status: ('A' for Active; 'I' for Inactive)
REMARK    1  A    between atoms: O1_2  and  C2_3 
REMARK    2  A    between atoms: C4_5  and  O2_6 
REMARK    3  A    between atoms: O2_6  and  C5_7 
REMARK    4  A    between atoms: C10_12  and  C11_13 
REMARK    5  A    between atoms: C11_13  and  C12_14 
REMARK    6  A    between atoms: C12_14  and  O3_15 
REMARK    7  A    between atoms: C12_14  and  C22_26 
REMARK    8  A    between atoms: O3_15  and  C13_16 
REMARK    9  A    between atoms: C13_16  and  C14_18 
REMARK   10  A    between atoms: C15_19  and  C16_20 
REMARK   11  A    between atoms: C27_32  and  C28_33 
REMARK   12  A    between atoms: C33_40  and  O8_41 
REMARK   13  A    between atoms: C37_46  and  O10_47 
ROOT
HETATM    1  C5  UNL     1      -3.690   7.389  14.305  1.00  0.00     0.128 C 
HETATM    2  C6  UNL     1      -3.258   8.548  13.412  1.00  0.00     0.033 C 
HETATM    3  C7  UNL     1      -2.045   8.188  12.555  1.00  0.00     0.016 C 
HETATM    4  C8  UNL     1      -0.817   7.656  13.369  1.00  0.00     0.002 C 
HETATM    5  C9  UNL     1      -0.238   8.857  14.165  1.00  0.00     0.019 C 
HETATM    6  C10 UNL     1       0.268   7.129  12.343  1.00  0.00     0.073 C 
HETATM    7  C30 UNL     1      -0.247   5.887  11.635  1.00  0.00     0.154 C 
HETATM    8  O7  UNL     1       0.034   5.636  10.465  1.00  0.00    -0.293 OA
HETATM    9  C31 UNL     1      -1.076   4.920  12.388  1.00  0.00     0.049 C 
HETATM   10  C32 UNL     1      -1.516   5.205  13.618  1.00  0.00     0.015 C 
HETATM   11  C33 UNL     1      -1.275   6.509  14.338  1.00  0.00     0.086 C 
HETATM   12  C34 UNL     1      -2.517   6.906  15.156  1.00  0.00     0.075 C 
ENDROOT
BRANCH   6  13
HETATM   13  C11 UNL     1       1.670   6.848  12.945  1.00  0.00     0.047 C 
BRANCH  13  14
HETATM   14  C12 UNL     1       2.814   7.809  12.516  1.00  0.00     0.149 C 
BRANCH  14  15
HETATM   15  O3  UNL     1       3.951   7.482  13.344  1.00  0.00    -0.311 OA
BRANCH  15  16
HETATM   16  C13 UNL     1       4.022   8.118  14.548  1.00  0.00     0.283 C 
HETATM   17  O4  UNL     1       3.778   7.619  15.630  1.00  0.00    -0.260 OA
BRANCH  16  18
HETATM   18  C14 UNL     1       4.402   9.523  14.290  1.00  0.00     0.083 C 
HETATM   19  C15 UNL     1       5.645  10.029  14.361  1.00  0.00     0.017 C 
BRANCH  19  20
HETATM   20  C16 UNL     1       6.887   9.306  14.661  1.00  0.00    -0.036 A 
HETATM   21  C17 UNL     1       7.386   9.215  15.967  1.00  0.00     0.011 A 
HETATM   22  C18 UNL     1       8.563   8.503  16.230  1.00  0.00     0.001 A 
HETATM   23  C19 UNL     1       9.241   7.872  15.188  1.00  0.00     0.000 A 
HETATM   24  C20 UNL     1       8.740   7.939  13.888  1.00  0.00     0.001 A 
HETATM   25  C21 UNL     1       7.564   8.650  13.625  1.00  0.00     0.011 A 
ENDBRANCH  19  20
ENDBRANCH  16  18
ENDBRANCH  15  16
ENDBRANCH  14  15
BRANCH  14  26
HETATM   26  C22 UNL     1       3.188   7.704  10.988  1.00  0.00     0.054 C 
HETATM   27  C23 UNL     1       2.139   8.357  10.075  1.00  0.00     0.027 C 
HETATM   28  C24 UNL     1       4.548   8.371  10.812  1.00  0.00     0.138 C 
HETATM   29  O5  UNL     1       4.721   9.578  10.718  1.00  0.00    -0.297 OA
HETATM   30  C25 UNL     1       5.691   7.391  10.749  1.00  0.00     0.080 C 
HETATM   31  C26 UNL     1       5.012   6.047  10.948  1.00  0.00     0.021 C 
HETATM   32  C27 UNL     1       3.548   6.250  10.550  1.00  0.00     0.073 C 
BRANCH  32  33
HETATM   33  C28 UNL     1       3.242   5.902   9.086  1.00  0.00     0.128 C 
HETATM   34  C29 UNL     1       2.628   6.940   8.184  1.00  0.00     0.091 C 
HETATM   35  O6  UNL     1       3.448   4.758   8.668  1.00  0.00    -0.298 OA
ENDBRANCH  32  33
ENDBRANCH  14  26
ENDBRANCH  13  14
ENDBRANCH   6  13
BRANCH  11  36
HETATM   36  O8  UNL     1      -0.231   6.234  15.272  1.00  0.00    -0.385 OA
HETATM   37  H40 UNL     1      -0.544   5.576  15.914  1.00  0.00     0.211 HD
ENDBRANCH  11  36
BRANCH   1  38
HETATM   38  O2  UNL     1      -4.718   7.869  15.177  1.00  0.00    -0.356 OA
BRANCH  38  39
HETATM   39  C4  UNL     1      -5.985   8.040  14.538  1.00  0.00     0.263 C 
HETATM   40  C3  UNL     1      -6.149   6.888  13.546  1.00  0.00     0.095 C 
HETATM   41  C2  UNL     1      -6.877   5.733  14.227  1.00  0.00     0.156 C 
HETATM   42  C37 UNL     1      -8.288   6.210  14.640  1.00  0.00     0.175 C 
HETATM   43  C35 UNL     1      -8.276   7.684  15.095  1.00  0.00     0.151 C 
HETATM   44  O9  UNL     1      -6.979   8.059  15.565  1.00  0.00    -0.354 OA
HETATM   45  C36 UNL     1      -9.280   7.924  16.216  1.00  0.00     0.042 C 
BRANCH  41  46
HETATM   46  O1  UNL     1      -7.047   4.599  13.358  1.00  0.00    -0.388 OA
HETATM   47  C1  UNL     1      -7.428   3.415  14.055  1.00  0.00     0.202 C 
ENDBRANCH  41  46
BRANCH  42  48
HETATM   48  O10 UNL     1      -9.186   6.089  13.526  1.00  0.00    -0.390 OA
HETATM   49  H48 UNL     1      -8.862   5.306  13.025  1.00  0.00     0.210 HD
ENDBRANCH  42  48
ENDBRANCH  38  39
ENDBRANCH   1  38
TORSDOF 13
ENDMDL
