MODEL 1
REMARK minimizedAffinity -9.17217922
REMARK  7 active torsions:
REMARK  status: ('A' for Active; 'I' for Inactive)
REMARK    1  A    between atoms: O1_2  and  C2_3 
REMARK    2  A    between atoms: C2_3  and  C3_4 
REMARK       I    between atoms: C3_4  and  N1_6 
REMARK    3  A    between atoms: N1_6  and  C4_7 
REMARK    4  A    between atoms: C7_10  and  C8_11 
REMARK    5  A    between atoms: C9_15  and  C10_16 
REMARK    6  A    between atoms: N3_20  and  C14_21 
REMARK    7  A    between atoms: C14_21  and  C15_22 
ROOT
HETATM    1  C15 UNL     1      -3.213  50.630 -27.107  1.00  0.00    -0.029 A 
HETATM    2  C16 UNL     1      -3.457  49.403 -27.746  1.00  0.00     0.009 A 
HETATM    3  C17 UNL     1      -4.052  48.347 -27.061  1.00  0.00     0.002 A 
HETATM    4  C18 UNL     1      -4.400  48.497 -25.719  1.00  0.00     0.022 A 
HETATM    5  C19 UNL     1      -4.150  49.705 -25.062  1.00  0.00     0.045 A 
HETATM    6  C20 UNL     1      -4.499  49.852 -23.676  1.00  0.00     0.099 C 
HETATM    7  N4  UNL     1      -4.779  49.973 -22.555  1.00  0.00    -0.191 NA
HETATM    8  C21 UNL     1      -3.558  50.768 -25.754  1.00  0.00     0.031 A 
ENDROOT
BRANCH   1   9
HETATM    9  C14 UNL     1      -2.543  51.772 -27.848  1.00  0.00     0.312 C 
BRANCH   9  10
HETATM   10  N3  UNL     1      -1.638  52.556 -26.995  1.00  0.00     0.105 N 
HETATM   11  C10 UNL     1      -0.542  51.735 -26.422  1.00  0.00     0.299 C 
HETATM   12  C11 UNL     1       0.544  51.732 -27.498  1.00  0.00     0.046 C 
HETATM   13  C12 UNL     1       0.311  52.996 -28.315  1.00  0.00     0.033 C 
HETATM   14  C13 UNL     1      -0.957  53.616 -27.753  1.00  0.00     0.274 C 
BRANCH  11  15
HETATM   15  C9  UNL     1      -0.062  52.322 -25.126  1.00  0.00     0.182 A 
HETATM   16  O3  UNL     1       0.778  53.390 -25.224  1.00  0.00    -0.220 OA
HETATM   17  N2  UNL     1       1.147  53.726 -23.924  1.00  0.00    -0.242 N 
HETATM   18  C8  UNL     1       0.503  52.828 -23.165  1.00  0.00     0.139 A 
ATOM     19  H2  UNL     1       1.765  54.479 -23.621  1.00  0.00     0.196 HD
HETATM   20  N5  UNL     1      -0.275  51.947 -23.883  1.00  0.00    -0.321 N 
ATOM     21  H5  UNL     1      -0.869  51.193 -23.537  1.00  0.00     0.169 HD
BRANCH  18  22
HETATM   22  C7  UNL     1       0.615  52.753 -21.719  1.00  0.00     0.025 A 
HETATM   23  C6  UNL     1      -0.098  51.828 -20.959  1.00  0.00     0.020 A 
HETATM   24  C5  UNL     1       0.025  51.824 -19.565  1.00  0.00     0.050 A 
HETATM   25  C4  UNL     1       0.872  52.742 -18.961  1.00  0.00     0.107 A 
HETATM   26  N6  UNL     1       1.583  53.641 -19.672  1.00  0.00    -0.351 N 
HETATM   27  C22 UNL     1       1.438  53.629 -21.023  1.00  0.00     0.105 A 
ATOM     28  H6  UNL     1       2.206  54.305 -19.212  1.00  0.00     0.166 HD
BRANCH  25  29
HETATM   29  N1  UNL     1       1.061  52.850 -17.589  1.00  0.00    -0.311 N 
HETATM   30  C3  UNL     1       1.054  51.858 -16.635  1.00  0.00     0.246 C 
HETATM   31  O2  UNL     1       0.904  50.654 -16.825  1.00  0.00    -0.271 OA
HETATM   32  H6  UNL     1       1.273  53.793 -17.281  1.00  0.00     0.170 HD
BRANCH  30  33
HETATM   33  C2  UNL     1       1.200  52.428 -15.221  1.00  0.00     0.270 C 
BRANCH  33  34
HETATM   34  O1  UNL     1       2.271  51.842 -14.489  1.00  0.00    -0.387 OA
HETATM   35  C1  UNL     1       3.518  52.006 -15.160  1.00  0.00     0.202 C 
ENDBRANCH  33  34
ENDBRANCH  30  33
ENDBRANCH  25  29
ENDBRANCH  18  22
ENDBRANCH  11  15
ENDBRANCH   9  10
ENDBRANCH   1   9
TORSDOF 7
ENDMDL
