MODEL 1
REMARK minimizedAffinity -9.53967285
REMARK CNNscore 0.397597104
REMARK CNNaffinity 7.38002014
REMARK  11 active torsions:
REMARK  status: ('A' for Active; 'I' for Inactive)
REMARK    1  A    between atoms: C3_3  and  O1_4 
REMARK    2  A    between atoms: N1_14  and  O2_16 
REMARK    3  A    between atoms: O2_16  and  C13_17 
REMARK    4  A    between atoms: C13_17  and  C14_18 
REMARK       I    between atoms: C14_18  and  N2_20 
REMARK    5  A    between atoms: N2_20  and  C15_21 
REMARK    6  A    between atoms: C15_21  and  C16_22 
REMARK    7  A    between atoms: C15_21  and  C17_25 
REMARK    8  A    between atoms: C16_22  and  O5_24 
REMARK    9  A    between atoms: C17_25  and  O6_26 
REMARK   10  A    between atoms: C17_25  and  C18_27 
REMARK   11  A    between atoms: C22_31  and  N3_32 
ROOT
HETATM    1  C1  UNL     1      -1.373   8.872  11.632  1.00  0.00     0.015 C 
HETATM    2  C2  UNL     1      -1.358   8.836  12.834  1.00  0.00    -0.078 C 
HETATM    3  C3  UNL     1      -1.305   8.800  14.313  1.00  0.00     0.128 C 
HETATM    4  C4  UNL     1      -0.516   7.566  14.771  1.00  0.00     0.052 C 
HETATM    5  C5  UNL     1      -1.551   6.452  14.720  1.00  0.00     0.010 C 
HETATM    6  C6  UNL     1      -2.795   7.095  15.342  1.00  0.00     0.002 C 
HETATM    7  C7  UNL     1      -4.148   6.401  15.054  1.00  0.00    -0.004 C 
HETATM    8  C8  UNL     1      -4.361   5.870  13.626  1.00  0.00     0.010 C 
HETATM    9  C9  UNL     1      -5.717   5.178  13.468  1.00  0.00     0.035 C 
HETATM   10  C10 UNL     1      -6.885   5.982  13.988  1.00  0.00    -0.069 C 
HETATM   11  C11 UNL     1      -8.009   6.084  13.256  1.00  0.00     0.030 C 
HETATM   12  C12 UNL     1      -9.243   6.714  13.799  1.00  0.00     0.032 C 
HETATM   13  N1  UNL     1     -10.268   6.833  13.002  1.00  0.00    -0.271 N 
ATOM     14  H1  UNL     1     -10.267   6.557  12.019  1.00  0.00     0.194 HD
HETATM   15  C24 UNL     1      -9.248   7.103  15.265  1.00  0.00     0.060 C 
HETATM   16  C25 UNL     1      -7.872   7.607  15.679  1.00  0.00     0.020 C 
HETATM   17  C26 UNL     1      -6.723   6.599  15.375  1.00  0.00    -0.016 C 
HETATM   18  C27 UNL     1      -6.810   5.464  16.429  1.00  0.00     0.020 C 
HETATM   19  C28 UNL     1      -5.322   7.320  15.480  1.00  0.00     0.002 C 
HETATM   20  C29 UNL     1      -5.268   8.677  14.728  1.00  0.00     0.007 C 
HETATM   21  C30 UNL     1      -3.901   9.099  14.184  1.00  0.00     0.014 C 
HETATM   22  C31 UNL     1      -2.703   8.625  15.024  1.00  0.00     0.003 C 
HETATM   23  C32 UNL     1      -2.721   9.416  16.362  1.00  0.00     0.020 C 
ENDROOT
BRANCH   3  24
HETATM   24  O1  UNL     1      -0.628   9.974  14.747  1.00  0.00    -0.377 OA
HETATM   25  H2  UNL     1       0.175  10.056  14.205  1.00  0.00     0.211 HD
ENDBRANCH   3  24
BRANCH  13  26
HETATM   26  O2  UNL     1     -11.370   7.388  13.664  1.00  0.00    -0.271 OA
BRANCH  26  27
HETATM   27  C13 UNL     1     -11.957   8.395  12.845  1.00  0.00     0.303 C 
BRANCH  27  28
HETATM   28  C14 UNL     1     -13.479   8.293  12.890  1.00  0.00     0.244 C 
HETATM   29  O3  UNL     1     -14.208   9.281  12.965  1.00  0.00    -0.271 OA
HETATM   30  N2  UNL     1     -13.973   7.012  12.822  1.00  0.00    -0.342 N 
HETATM   31  H16 UNL     1     -13.305   6.252  12.910  1.00  0.00     0.163 HD
BRANCH  30  32
HETATM   32  C15 UNL     1     -15.394   6.710  13.015  1.00  0.00     0.216 C 
BRANCH  32  33
HETATM   33  C16 UNL     1     -16.287   7.719  12.283  1.00  0.00     0.166 C 
HETATM   34  O4  UNL     1     -17.200   8.358  12.784  1.00  0.00    -0.648 OA
BRANCH  33  35
HETATM   35  O5  UNL     1     -15.964   7.929  10.988  1.00  0.00    -0.775 OA
HETATM   36  H18 UNL     1     -16.651   8.540  10.656  1.00  0.00     0.167 HD
ENDBRANCH  33  35
ENDBRANCH  32  33
BRANCH  32  37
HETATM   37  C17 UNL     1     -15.789   6.753  14.515  1.00  0.00     0.184 C 
BRANCH  37  38
HETATM   38  O6  UNL     1     -14.730   7.295  15.322  1.00  0.00    -0.388 OA
HETATM   39  H20 UNL     1     -14.851   6.969  16.231  1.00  0.00     0.210 HD
ENDBRANCH  37  38
BRANCH  37  40
HETATM   40  C18 UNL     1     -16.181   5.396  15.073  1.00  0.00    -0.025 A 
HETATM   41  C19 UNL     1     -17.224   5.296  16.012  1.00  0.00     0.010 A 
HETATM   42  C20 UNL     1     -17.596   4.054  16.536  1.00  0.00     0.003 A 
HETATM   43  C21 UNL     1     -16.934   2.893  16.133  1.00  0.00     0.036 A 
HETATM   44  C22 UNL     1     -15.893   2.983  15.198  1.00  0.00     0.103 A 
HETATM   45  C23 UNL     1     -15.513   4.225  14.668  1.00  0.00     0.045 A 
BRANCH  44  46
HETATM   46  N3  UNL     1     -15.193   1.762  14.773  1.00  0.00    -0.116 N 
HETATM   47  O7  UNL     1     -14.300   1.322  15.511  1.00  0.00    -0.532 OA
HETATM   48  O8  UNL     1     -15.542   1.239  13.704  1.00  0.00    -0.532 OA
ENDBRANCH  44  46
ENDBRANCH  37  40
ENDBRANCH  32  37
ENDBRANCH  30  32
ENDBRANCH  27  28
ENDBRANCH  26  27
ENDBRANCH  13  26
TORSDOF 11
ENDMDL
