MODEL 1
REMARK minimizedAffinity -7.16432905
REMARK CNNscore 0.423358321
REMARK CNNaffinity 5.78165054
REMARK  4 active torsions:
REMARK  status: ('A' for Active; 'I' for Inactive)
REMARK    1  A    between atoms: C4_4  and  C5_5 
REMARK    2  A    between atoms: C5_5  and  C6_6 
REMARK    3  A    between atoms: C6_6  and  C7_7 
REMARK    4  A    between atoms: C7_7  and  C9_9 
ROOT
HETATM    1  C9  UNL     1       3.819   7.650  11.876  1.00  0.00    -0.002 C 
HETATM    2  C10 UNL     1       4.354   8.106  10.493  1.00  0.00     0.007 C 
HETATM    3  C11 UNL     1       5.717   8.790  10.751  1.00  0.00     0.015 C 
HETATM    4  C12 UNL     1       6.087   8.414  12.205  1.00  0.00    -0.013 C 
HETATM    5  C13 UNL     1       6.744   6.997  12.118  1.00  0.00     0.021 C 
HETATM    6  C14 UNL     1       7.066   9.274  13.001  1.00  0.00    -0.070 C 
HETATM    7  C15 UNL     1       7.856  10.197  12.427  1.00  0.00    -0.022 C 
HETATM    8  C16 UNL     1       8.928  10.964  13.144  1.00  0.00     0.038 C 
HETATM    9  C17 UNL     1       9.393  10.325  14.493  1.00  0.00    -0.019 C 
HETATM   10  C18 UNL     1      10.174   9.017  14.114  1.00  0.00     0.017 C 
HETATM   11  C19 UNL     1      10.371  11.321  15.309  1.00  0.00     0.021 C 
HETATM   12  C20 UNL     1      10.172  12.821  14.964  1.00  0.00     0.024 C 
HETATM   13  C21 UNL     1      11.878  11.055  15.069  1.00  0.00     0.024 C 
HETATM   14  C22 UNL     1      10.162  11.153  16.826  1.00  0.00     0.135 C 
HETATM   15  O1  UNL     1      10.401  12.060  17.627  1.00  0.00    -0.297 OA
HETATM   16  C23 UNL     1       9.748   9.797  17.335  1.00  0.00     0.080 C 
HETATM   17  C24 UNL     1       8.490   9.254  16.667  1.00  0.00     0.018 C 
HETATM   18  C25 UNL     1       8.081   9.943  15.332  1.00  0.00    -0.028 C 
HETATM   19  C26 UNL     1       7.249  11.209  15.693  1.00  0.00     0.016 C 
HETATM   20  C27 UNL     1       7.165   8.930  14.500  1.00  0.00     0.024 C 
HETATM   21  C28 UNL     1       5.782   8.638  15.167  1.00  0.00     0.010 C 
HETATM   22  C29 UNL     1       4.772   7.865  14.297  1.00  0.00     0.011 C 
HETATM   23  C30 UNL     1       4.675   8.471  12.885  1.00  0.00    -0.029 C 
HETATM   24  C31 UNL     1       4.131   9.925  13.014  1.00  0.00     0.016 C 
ENDROOT
BRANCH   1  25
HETATM   25  C7  UNL     1       2.270   7.619  12.050  1.00  0.00    -0.014 C 
HETATM   26  C8  UNL     1       1.816   6.147  12.040  1.00  0.00     0.010 C 
BRANCH  25  27
HETATM   27  C6  UNL     1       1.466   8.422  10.996  1.00  0.00     0.008 C 
BRANCH  27  28
HETATM   28  C5  UNL     1       0.581   7.563  10.073  1.00  0.00     0.028 C 
BRANCH  28  29
HETATM   29  C4  UNL     1       0.886   7.718   8.610  1.00  0.00    -0.025 C 
HETATM   30  C2  UNL     1       1.779   7.037   7.867  1.00  0.00    -0.091 C 
HETATM   31  C1  UNL     1       2.695   5.956   8.371  1.00  0.00     0.042 C 
HETATM   32  C3  UNL     1       1.936   7.338   6.398  1.00  0.00     0.042 C 
ENDBRANCH  28  29
ENDBRANCH  27  28
ENDBRANCH  25  27
ENDBRANCH   1  25
TORSDOF 4
ENDMDL
