MODEL 1
REMARK minimizedAffinity -8.51531887
REMARK CNNscore 0.601929069
REMARK CNNaffinity 7.10354567
REMARK  12 active torsions:
REMARK  status: ('A' for Active; 'I' for Inactive)
REMARK    1  A    between atoms: C2_2  and  C3_3 
REMARK    2  A    between atoms: C2_2  and  C9_10 
REMARK    3  A    between atoms: C3_3  and  C4_4 
REMARK    4  A    between atoms: C5_5  and  C6_6 
REMARK    5  A    between atoms: C6_6  and  O1_9 
REMARK    6  A    between atoms: C27_29  and  O3_30 
REMARK    7  A    between atoms: O3_30  and  C28_31 
REMARK    8  A    between atoms: C29_33  and  C30_34 
REMARK    9  A    between atoms: C30_34  and  O5_35 
REMARK   10  A    between atoms: C31_36  and  O6_37 
REMARK   11  A    between atoms: C32_38  and  O7_39 
REMARK   12  A    between atoms: C33_40  and  O8_41 
ROOT
HETATM    1  C9  UNL     1       7.069  56.379  -6.001  1.00  0.00    -0.002 C 
HETATM    2  C10 UNL     1       7.470  54.889  -5.806  1.00  0.00     0.006 C 
HETATM    3  C11 UNL     1       6.440  54.042  -6.619  1.00  0.00     0.011 C 
HETATM    4  C12 UNL     1       5.620  55.085  -7.420  1.00  0.00    -0.029 C 
HETATM    5  C13 UNL     1       6.506  55.395  -8.692  1.00  0.00     0.016 C 
HETATM    6  C14 UNL     1       4.196  54.722  -7.988  1.00  0.00     0.028 C 
HETATM    7  C15 UNL     1       3.543  53.403  -7.697  1.00  0.00    -0.021 C 
HETATM    8  C16 UNL     1       2.226  53.267  -7.946  1.00  0.00     0.008 C 
HETATM    9  C17 UNL     1       1.350  54.433  -8.437  1.00  0.00     0.092 C 
HETATM   10  O2  UNL     1       0.938  55.051  -7.208  1.00  0.00    -0.374 OA
HETATM   11  C18 UNL     1       2.070  55.878  -6.796  1.00  0.00     0.179 C 
HETATM   12  C19 UNL     1       3.136  55.897  -7.960  1.00  0.00    -0.004 C 
HETATM   13  C20 UNL     1       3.832  57.263  -8.052  1.00  0.00     0.014 C 
HETATM   14  C21 UNL     1       4.946  57.520  -7.011  1.00  0.00     0.011 C 
HETATM   15  C22 UNL     1       5.560  56.258  -6.376  1.00  0.00    -0.032 C 
HETATM   16  C23 UNL     1       4.751  55.820  -5.117  1.00  0.00     0.016 C 
HETATM   17  C24 UNL     1       2.114  55.616  -9.081  1.00  0.00     0.036 C 
HETATM   18  C25 UNL     1       2.525  55.392 -10.533  1.00  0.00     0.011 C 
HETATM   19  C26 UNL     1       2.190  54.003 -11.081  1.00  0.00     0.033 C 
HETATM   20  C27 UNL     1       0.809  53.416 -10.687  1.00  0.00     0.136 C 
HETATM   21  C34 UNL     1       0.186  54.007  -9.374  1.00  0.00     0.014 C 
HETATM   22  C35 UNL     1      -0.758  55.205  -9.682  1.00  0.00     0.021 C 
HETATM   23  C36 UNL     1      -0.734  52.944  -8.721  1.00  0.00     0.021 C 
ENDROOT
BRANCH  20  24
HETATM   24  O3  UNL     1      -0.142  53.560 -11.752  1.00  0.00    -0.352 OA
BRANCH  24  25
HETATM   25  C28 UNL     1      -0.259  52.422 -12.614  1.00  0.00     0.292 C 
HETATM   26  O4  UNL     1       0.408  52.633 -13.850  1.00  0.00    -0.348 OA
HETATM   27  C29 UNL     1       0.464  51.437 -14.661  1.00  0.00     0.179 C 
HETATM   28  C31 UNL     1      -0.796  50.560 -14.537  1.00  0.00     0.180 C 
HETATM   29  C32 UNL     1      -2.016  51.407 -14.157  1.00  0.00     0.183 C 
HETATM   30  C33 UNL     1      -1.769  52.241 -12.888  1.00  0.00     0.204 C 
BRANCH  27  31
HETATM   31  C30 UNL     1       0.662  51.922 -16.101  1.00  0.00     0.198 C 
BRANCH  31  32
HETATM   32  O5  UNL     1       1.377  53.156 -16.102  1.00  0.00    -0.398 OA
HETATM   33  H46 UNL     1       0.955  53.702 -15.410  1.00  0.00     0.209 HD
ENDBRANCH  31  32
ENDBRANCH  27  31
BRANCH  28  34
HETATM   34  O6  UNL     1      -0.588  49.582 -13.499  1.00  0.00    -0.390 OA
HETATM   35  H48 UNL     1      -1.452  49.133 -13.397  1.00  0.00     0.210 HD
ENDBRANCH  28  34
BRANCH  29  36
HETATM   36  O7  UNL     1      -3.147  50.542 -13.974  1.00  0.00    -0.390 OA
HETATM   37  H50 UNL     1      -3.383  50.634 -13.023  1.00  0.00     0.210 HD
ENDBRANCH  29  36
BRANCH  30  38
HETATM   38  O8  UNL     1      -2.440  51.634 -11.763  1.00  0.00    -0.388 OA
HETATM   39  H52 UNL     1      -2.131  52.125 -10.979  1.00  0.00     0.210 HD
ENDBRANCH  30  38
ENDBRANCH  24  25
ENDBRANCH  20  24
BRANCH   1  40
HETATM   40  C2  UNL     1       7.604  57.426  -4.973  1.00  0.00    -0.010 C 
HETATM   41  C1  UNL     1       6.644  58.633  -4.959  1.00  0.00     0.010 C 
BRANCH  40  42
HETATM   42  C3  UNL     1       9.063  57.897  -5.132  1.00  0.00     0.031 C 
BRANCH  42  43
HETATM   43  C4  UNL     1       9.418  59.324  -4.781  1.00  0.00    -0.027 C 
HETATM   44  C5  UNL     1       9.412  60.398  -5.592  1.00  0.00     0.006 C 
BRANCH  44  45
HETATM   45  C6  UNL     1       9.744  61.826  -5.212  1.00  0.00     0.068 C 
HETATM   46  C7  UNL     1      10.028  62.656  -6.467  1.00  0.00     0.050 C 
HETATM   47  C8  UNL     1       8.591  62.444  -4.416  1.00  0.00     0.050 C 
BRANCH  45  48
HETATM   48  O1  UNL     1      10.905  61.868  -4.384  1.00  0.00    -0.387 OA
HETATM   49  H15 UNL     1      11.641  61.510  -4.908  1.00  0.00     0.211 HD
ENDBRANCH  45  48
ENDBRANCH  44  45
ENDBRANCH  42  43
ENDBRANCH  40  42
ENDBRANCH   1  40
TORSDOF 12
ENDMDL
