MODEL 1
REMARK minimizedAffinity -10.2440157
REMARK  3 active torsions:
REMARK  status: ('A' for Active; 'I' for Inactive)
REMARK    1  A    between atoms: C4_4  and  C5_5 
REMARK    2  A    between atoms: C5_5  and  C7_7 
REMARK    3  A    between atoms: C7_7  and  O1_10 
ROOT
HETATM    1  C1  UNL     1      -4.697   9.731  15.987  1.00  0.00     0.010 C 
HETATM    2  C2  UNL     1      -5.010   8.474  15.179  1.00  0.00    -0.009 C 
HETATM    3  C3  UNL     1      -6.088   7.630  15.871  1.00  0.00     0.037 C 
HETATM    4  C4  UNL     1      -6.565   6.492  14.952  1.00  0.00     0.129 C 
HETATM    5  O2  UNL     1      -5.479   6.041  14.116  1.00  0.00    -0.380 OA
HETATM    6  C10 UNL     1      -4.186   6.104  14.697  1.00  0.00     0.128 C 
HETATM    7  C11 UNL     1      -3.161   5.566  13.680  1.00  0.00     0.042 C 
HETATM    8  C12 UNL     1      -1.964   6.535  13.772  1.00  0.00    -0.030 C 
HETATM    9  C13 UNL     1      -1.128   6.103  15.018  1.00  0.00     0.016 C 
HETATM   10  C14 UNL     1      -1.072   6.576  12.505  1.00  0.00     0.004 C 
HETATM   11  C15 UNL     1      -0.251   5.299  12.286  1.00  0.00     0.007 C 
HETATM   12  C16 UNL     1       0.538   5.389  10.986  1.00  0.00     0.007 C 
HETATM   13  C17 UNL     1       1.642   6.439  11.116  1.00  0.00     0.010 C 
HETATM   14  C18 UNL     1       2.492   6.646   9.821  1.00  0.00     0.018 C 
HETATM   15  C19 UNL     1       1.657   6.757   8.538  1.00  0.00     0.023 C 
HETATM   16  C20 UNL     1       3.502   5.492   9.669  1.00  0.00     0.023 C 
HETATM   17  C21 UNL     1       3.316   7.935   9.960  1.00  0.00     0.135 C 
HETATM   18  O3  UNL     1       3.800   8.498   8.968  1.00  0.00    -0.297 OA
HETATM   19  C22 UNL     1       3.597   8.436  11.353  1.00  0.00     0.080 C 
HETATM   20  C23 UNL     1       2.314   8.651  12.149  1.00  0.00     0.018 C 
HETATM   21  C24 UNL     1       1.156   7.777  11.681  1.00  0.00    -0.026 A 
HETATM   22  C25 UNL     1      -0.031   8.469  11.062  1.00  0.00     0.021 A 
HETATM   23  C26 UNL     1      -0.198   7.852  12.442  1.00  0.00    -0.027 A 
HETATM   24  C27 UNL     1      -0.308   8.839  13.614  1.00  0.00     0.011 C 
HETATM   25  C28 UNL     1      -1.671   8.970  14.319  1.00  0.00     0.011 C 
HETATM   26  C29 UNL     1      -2.705   7.909  13.925  1.00  0.00    -0.030 C 
HETATM   27  C30 UNL     1      -3.418   8.403  12.629  1.00  0.00     0.016 C 
HETATM   28  C31 UNL     1      -3.771   7.569  15.010  1.00  0.00     0.027 C 
ENDROOT
BRANCH   4  29
HETATM   29  C5  UNL     1      -7.746   6.811  13.968  1.00  0.00     0.044 C 
HETATM   30  C6  UNL     1      -7.813   5.648  12.946  1.00  0.00     0.015 C 
BRANCH  29  31
HETATM   31  C7  UNL     1      -9.153   7.101  14.607  1.00  0.00     0.056 C 
HETATM   32  C8  UNL     1      -9.322   8.581  15.005  1.00  0.00     0.045 C 
HETATM   33  C9  UNL     1     -10.330   6.778  13.660  1.00  0.00     0.045 C 
BRANCH  31  34
HETATM   34  O1  UNL     1      -9.355   6.268  15.750  1.00  0.00    -0.390 OA
HETATM   35  H18 UNL     1      -8.950   6.685  16.530  1.00  0.00     0.210 HD
ENDBRANCH  31  34
ENDBRANCH  29  31
ENDBRANCH   4  29
TORSDOF 3
ENDMDL
