MODEL 1
REMARK minimizedAffinity -9.18530369
REMARK  4 active torsions:
REMARK  status: ('A' for Active; 'I' for Inactive)
REMARK    1  A    between atoms: C4_4  and  C5_5 
REMARK    2  A    between atoms: C5_5  and  C6_6 
REMARK    3  A    between atoms: C6_6  and  C7_7 
REMARK    4  A    between atoms: C7_7  and  C9_9 
ROOT
HETATM    1  C9  UNL     1      -5.688   6.974  14.978  1.00  0.00    -0.002 C 
HETATM    2  C10 UNL     1      -5.906   8.469  14.589  1.00  0.00     0.007 C 
HETATM    3  C11 UNL     1      -4.601   8.980  13.952  1.00  0.00     0.015 C 
HETATM    4  C12 UNL     1      -3.554   7.898  14.276  1.00  0.00    -0.013 C 
HETATM    5  C13 UNL     1      -3.045   8.203  15.722  1.00  0.00     0.021 C 
HETATM    6  C14 UNL     1      -2.307   7.827  13.398  1.00  0.00    -0.070 C 
HETATM    7  C15 UNL     1      -1.757   8.923  12.848  1.00  0.00    -0.022 C 
HETATM    8  C16 UNL     1      -0.475   8.934  12.076  1.00  0.00     0.034 C 
HETATM    9  C17 UNL     1       0.078   7.536  11.715  1.00  0.00     0.013 C 
HETATM   10  C18 UNL     1       1.524   7.597  11.099  1.00  0.00     0.018 C 
HETATM   11  C19 UNL     1       2.454   8.652  11.730  1.00  0.00     0.023 C 
HETATM   12  C20 UNL     1       1.425   7.924   9.592  1.00  0.00     0.023 C 
HETATM   13  C21 UNL     1       2.185   6.220  11.204  1.00  0.00     0.135 C 
HETATM   14  O1  UNL     1       3.407   6.063  11.195  1.00  0.00    -0.297 OA
HETATM   15  C22 UNL     1       1.261   5.035  11.231  1.00  0.00     0.080 C 
HETATM   16  C23 UNL     1       0.348   5.077  12.446  1.00  0.00     0.017 C 
HETATM   17  C24 UNL     1      -0.123   6.500  12.887  1.00  0.00    -0.031 C 
HETATM   18  C25 UNL     1       0.685   6.904  14.144  1.00  0.00     0.016 C 
HETATM   19  C26 UNL     1      -1.676   6.445  13.207  1.00  0.00     0.024 C 
HETATM   20  C27 UNL     1      -2.078   5.455  14.327  1.00  0.00     0.010 C 
HETATM   21  C28 UNL     1      -3.590   5.395  14.660  1.00  0.00     0.011 C 
HETATM   22  C29 UNL     1      -4.417   6.592  14.142  1.00  0.00    -0.029 C 
HETATM   23  C30 UNL     1      -4.877   6.292  12.679  1.00  0.00     0.016 C 
ENDROOT
BRANCH   1  24
HETATM   24  C7  UNL     1      -6.997   6.142  14.827  1.00  0.00    -0.014 C 
HETATM   25  C8  UNL     1      -7.284   5.324  16.099  1.00  0.00     0.010 C 
BRANCH  24  26
HETATM   26  C6  UNL     1      -7.044   5.218  13.586  1.00  0.00     0.008 C 
BRANCH  26  27
HETATM   27  C5  UNL     1      -7.389   3.754  13.870  1.00  0.00     0.028 C 
BRANCH  27  28
HETATM   28  C4  UNL     1      -7.157   2.712  12.800  1.00  0.00    -0.025 C 
HETATM   29  C2  UNL     1      -6.094   2.400  12.032  1.00  0.00    -0.091 C 
HETATM   30  C1  UNL     1      -6.204   1.295  11.009  1.00  0.00     0.042 C 
HETATM   31  C3  UNL     1      -4.745   3.054  12.088  1.00  0.00     0.042 C 
ENDBRANCH  27  28
ENDBRANCH  26  27
ENDBRANCH  24  26
ENDBRANCH   1  24
TORSDOF 4
ENDMDL
