MODEL 1
REMARK minimizedAffinity -6.56152678
REMARK CNNscore 0.552721798
REMARK CNNaffinity 6.38619852
REMARK  8 active torsions:
REMARK  status: ('A' for Active; 'I' for Inactive)
REMARK    1  A    between atoms: C11_11  and  O1_12 
REMARK    2  A    between atoms: O1_12  and  C12_13 
REMARK    3  A    between atoms: C14_16  and  O3_17 
REMARK    4  A    between atoms: C15_18  and  O4_19 
REMARK    5  A    between atoms: C16_20  and  O5_21 
REMARK    6  A    between atoms: C19_24  and  C20_25 
REMARK    7  A    between atoms: C21_27  and  O7_28 
REMARK    8  A    between atoms: C24_31  and  C25_32 
ROOT
HETATM    1  C1  UNL     1     -15.715   2.236  30.025  1.00  0.00     0.019 C 
HETATM    2  C2  UNL     1     -14.781   3.429  29.733  1.00  0.00    -0.005 C 
HETATM    3  C3  UNL     1     -15.612   4.553  29.060  1.00  0.00     0.013 C 
HETATM    4  C4  UNL     1     -16.034   4.232  27.629  1.00  0.00     0.007 C 
HETATM    5  C5  UNL     1     -14.824   3.931  26.723  1.00  0.00     0.012 C 
HETATM    6  C6  UNL     1     -13.956   2.788  27.343  1.00  0.00     0.027 C 
HETATM    7  C7  UNL     1     -12.708   2.510  26.471  1.00  0.00     0.012 C 
HETATM    8  C8  UNL     1     -13.052   2.228  25.011  1.00  0.00     0.036 C 
HETATM    9  C9  UNL     1     -13.908   3.344  24.468  1.00  0.00    -0.065 C 
HETATM   10  C10 UNL     1     -13.461   4.100  23.444  1.00  0.00     0.009 C 
HETATM   11  C11 UNL     1     -14.112   5.363  22.968  1.00  0.00     0.148 C 
HETATM   12  C17 UNL     1     -15.081   5.913  24.017  1.00  0.00     0.037 C 
HETATM   13  C18 UNL     1     -15.987   4.803  24.545  1.00  0.00     0.024 C 
HETATM   14  C19 UNL     1     -15.209   3.635  25.229  1.00  0.00     0.040 C 
HETATM   15  C21 UNL     1     -13.577   3.035  28.831  1.00  0.00     0.070 C 
HETATM   16  C22 UNL     1     -12.581   4.177  29.067  1.00  0.00     0.040 C 
HETATM   17  C23 UNL     1     -12.694   4.492  30.557  1.00  0.00     0.013 C 
HETATM   18  C24 UNL     1     -14.100   4.031  31.020  1.00  0.00     0.028 C 
ENDROOT
BRANCH  11  19
HETATM   19  O1  UNL     1     -14.818   5.030  21.775  1.00  0.00    -0.349 OA
BRANCH  19  20
HETATM   20  C12 UNL     1     -15.434   6.162  21.157  1.00  0.00     0.291 C 
HETATM   21  O2  UNL     1     -16.799   5.899  20.822  1.00  0.00    -0.356 OA
HETATM   22  C13 UNL     1     -16.959   5.420  19.483  1.00  0.00     0.205 C 
HETATM   23  C14 UNL     1     -16.629   6.545  18.495  1.00  0.00     0.173 C 
HETATM   24  C15 UNL     1     -15.397   7.352  18.948  1.00  0.00     0.182 C 
HETATM   25  C16 UNL     1     -14.561   6.548  19.941  1.00  0.00     0.204 C 
BRANCH  23  26
HETATM   26  O3  UNL     1     -17.761   7.427  18.404  1.00  0.00    -0.391 OA
HETATM   27  H20 UNL     1     -18.011   7.678  19.312  1.00  0.00     0.210 HD
ENDBRANCH  23  26
BRANCH  24  28
HETATM   28  O4  UNL     1     -14.582   7.688  17.816  1.00  0.00    -0.390 OA
HETATM   29  H22 UNL     1     -13.769   8.082  18.189  1.00  0.00     0.210 HD
ENDBRANCH  24  28
BRANCH  25  30
HETATM   30  O5  UNL     1     -13.415   7.318  20.346  1.00  0.00    -0.388 OA
HETATM   31  H24 UNL     1     -12.910   6.744  20.954  1.00  0.00     0.210 HD
ENDBRANCH  25  30
ENDBRANCH  19  20
ENDBRANCH  11  19
BRANCH  14  32
HETATM   32  C20 UNL     1     -16.197   2.445  25.163  1.00  0.00     0.245 C 
HETATM   33  O6  UNL     1     -17.062   2.261  24.314  1.00  0.00    -0.306 OA
ENDBRANCH  14  32
BRANCH  15  34
HETATM   34  O7  UNL     1     -12.995   1.836  29.359  1.00  0.00    -0.389 OA
HETATM   35  H30 UNL     1     -12.130   1.691  28.938  1.00  0.00     0.210 HD
ENDBRANCH  15  34
BRANCH  18  36
HETATM   36  C25 UNL     1     -14.067   3.170  32.254  1.00  0.00    -0.045 A 
HETATM   37  C26 UNL     1     -15.065   2.803  33.060  1.00  0.00     0.087 A 
HETATM   38  C27 UNL     1     -14.491   1.956  34.103  1.00  0.00     0.283 A 
HETATM   39  O8  UNL     1     -15.123   1.438  35.006  1.00  0.00    -0.260 OA
HETATM   40  O9  UNL     1     -13.155   1.832  33.893  1.00  0.00    -0.314 OA
HETATM   41  C28 UNL     1     -12.795   2.573  32.729  1.00  0.00     0.213 A 
ENDBRANCH  18  36
TORSDOF 8
ENDMDL
