MODEL 1
REMARK minimizedAffinity -9.7584095
REMARK  9 active torsions:
REMARK  status: ('A' for Active; 'I' for Inactive)
REMARK    1  A    between atoms: C2_2  and  C17_19 
REMARK    2  A    between atoms: C3_3  and  C4_4 
REMARK    3  A    between atoms: C4_4  and  C5_5 
REMARK    4  A    between atoms: C5_5  and  C6_6 
REMARK    5  A    between atoms: C12_12  and  O1_13 
REMARK    6  A    between atoms: C17_19  and  C18_20 
REMARK    7  A    between atoms: C18_20  and  C19_21 
REMARK    8  A    between atoms: C23_25  and  C24_26 
REMARK    9  A    between atoms: C24_26  and  O3_29 
ROOT
HETATM    1  C1  UNL     1      -2.816  48.588 -24.344  1.00  0.00     0.043 C 
HETATM    2  C2  UNL     1      -3.054  49.254 -25.673  1.00  0.00    -0.087 C 
HETATM    3  C3  UNL     1      -3.111  50.590 -25.857  1.00  0.00    -0.024 C 
ENDROOT
BRANCH   2   4
HETATM    4  C17 UNL     1      -3.300  48.314 -26.844  1.00  0.00     0.037 C 
BRANCH   4   5
HETATM    5  C18 UNL     1      -4.374  48.794 -27.833  1.00  0.00     0.032 C 
BRANCH   5   6
HETATM    6  C19 UNL     1      -5.553  47.865 -27.973  1.00  0.00    -0.013 C 
HETATM    7  C20 UNL     1      -6.006  47.233 -29.077  1.00  0.00     0.013 C 
HETATM    8  C21 UNL     1      -7.170  46.297 -28.989  1.00  0.00     0.047 C 
HETATM    9  C27 UNL     1      -5.379  47.422 -30.412  1.00  0.00     0.289 C 
HETATM   10  C22 UNL     1      -6.890  45.044 -29.795  1.00  0.00     0.040 C 
HETATM   11  C23 UNL     1      -6.645  45.452 -31.242  1.00  0.00     0.166 C 
HETATM   12  O4  UNL     1      -5.582  46.437 -31.320  1.00  0.00    -0.309 OA
HETATM   13  O5  UNL     1      -4.684  48.389 -30.695  1.00  0.00    -0.260 OA
BRANCH  11  14
HETATM   14  C24 UNL     1      -6.250  44.268 -32.169  1.00  0.00     0.077 C 
HETATM   15  C25 UNL     1      -6.641  42.921 -31.544  1.00  0.00     0.048 C 
HETATM   16  C26 UNL     1      -4.753  44.260 -32.495  1.00  0.00     0.048 C 
BRANCH  14  17
HETATM   17  O3  UNL     1      -6.956  44.386 -33.411  1.00  0.00    -0.388 OA
HETATM   18  H36 UNL     1      -7.906  44.389 -33.191  1.00  0.00     0.210 HD
ENDBRANCH  14  17
ENDBRANCH  11  14
ENDBRANCH   5   6
ENDBRANCH   4   5
ENDBRANCH   2   4
BRANCH   3  19
HETATM   19  C4  UNL     1      -2.901  51.676 -24.836  1.00  0.00     0.030 C 
BRANCH  19  20
HETATM   20  C5  UNL     1      -1.772  52.622 -25.272  1.00  0.00     0.046 C 
BRANCH  20  21
HETATM   21  C6  UNL     1      -0.352  52.152 -24.871  1.00  0.00     0.082 C 
HETATM   22  C7  UNL     1       0.248  51.211 -25.926  1.00  0.00     0.051 C 
HETATM   23  C8  UNL     1       0.547  53.366 -24.762  1.00  0.00     0.012 C 
HETATM   24  C9  UNL     1       1.023  53.821 -23.599  1.00  0.00     0.013 C 
HETATM   25  C10 UNL     1       0.644  53.114 -22.385  1.00  0.00     0.000 A 
HETATM   26  C11 UNL     1       1.017  53.612 -21.131  1.00  0.00     0.050 A 
HETATM   27  C16 UNL     1      -0.083  51.920 -22.472  1.00  0.00     0.086 A 
HETATM   28  C12 UNL     1       0.660  52.913 -19.982  1.00  0.00     0.067 A 
HETATM   29  C13 UNL     1      -0.058  51.725 -20.062  1.00  0.00     0.046 A 
HETATM   30  C14 UNL     1      -0.434  51.211 -21.310  1.00  0.00    -0.025 A 
HETATM   31  C15 UNL     1      -1.208  49.927 -21.395  1.00  0.00     0.051 C 
HETATM   32  O2  UNL     1      -0.459  51.366 -23.666  1.00  0.00    -0.335 OA
BRANCH  28  33
HETATM   33  O1  UNL     1       1.002  53.364 -18.740  1.00  0.00    -0.361 OA
HETATM   34  H15 UNL     1       1.494  54.197 -18.834  1.00  0.00     0.217 HD
ENDBRANCH  28  33
ENDBRANCH  20  21
ENDBRANCH  19  20
ENDBRANCH   3  19
TORSDOF 9
ENDMDL
