MODEL 1
REMARK minimizedAffinity -6.06841898
REMARK CNNscore 0.726541162
REMARK CNNaffinity 6.52716208
REMARK  5 active torsions:
REMARK  status: ('A' for Active; 'I' for Inactive)
REMARK    1  A    between atoms: C2_2  and  C4_4 
REMARK    2  A    between atoms: C7_7  and  C8_8 
REMARK    3  A    between atoms: C8_8  and  O2_10 
REMARK    4  A    between atoms: C11_13  and  C12_14 
REMARK    5  A    between atoms: C12_14  and  O4_16 
ROOT
HETATM    1  C4  UNL     1       0.964  52.305 -11.697  1.00  0.00     0.019 C 
HETATM    2  C5  UNL     1       0.414  50.876 -11.581  1.00  0.00     0.011 C 
HETATM    3  C6  UNL     1       1.387  50.077 -12.433  1.00  0.00     0.021 C 
HETATM    4  C7  UNL     1       2.772  50.608 -12.003  1.00  0.00     0.050 C 
HETATM    5  C9  UNL     1       3.221  49.821 -10.754  1.00  0.00     0.022 C 
HETATM    6  C10 UNL     1       4.276  50.521  -9.899  1.00  0.00     0.023 C 
HETATM    7  C11 UNL     1       3.897  51.973  -9.457  1.00  0.00     0.057 C 
HETATM    8  C13 UNL     1       3.554  52.769 -10.761  1.00  0.00     0.011 C 
HETATM    9  C14 UNL     1       3.408  54.278 -10.551  1.00  0.00     0.007 C 
HETATM   10  C15 UNL     1       4.602  54.900  -9.823  1.00  0.00     0.006 C 
HETATM   11  C16 UNL     1       4.872  54.219  -8.467  1.00  0.00     0.003 C 
HETATM   12  C17 UNL     1       5.827  55.045  -7.502  1.00  0.00    -0.035 C 
HETATM   13  C18 UNL     1       7.172  55.434  -8.179  1.00  0.00     0.016 C 
HETATM   14  C19 UNL     1       5.123  56.405  -7.173  1.00  0.00     0.017 C 
HETATM   15  C20 UNL     1       5.594  57.022  -5.869  1.00  0.00     0.080 C 
HETATM   16  C21 UNL     1       5.187  56.141  -4.719  1.00  0.00     0.135 C 
HETATM   17  O5  UNL     1       4.827  56.654  -3.656  1.00  0.00    -0.297 OA
HETATM   18  C22 UNL     1       5.255  54.615  -4.914  1.00  0.00     0.017 C 
HETATM   19  C23 UNL     1       5.890  54.050  -3.618  1.00  0.00     0.023 C 
HETATM   20  C24 UNL     1       3.811  54.104  -4.986  1.00  0.00     0.023 C 
HETATM   21  C25 UNL     1       6.159  54.271  -6.162  1.00  0.00     0.009 C 
HETATM   22  C26 UNL     1       6.393  52.762  -6.402  1.00  0.00     0.007 C 
HETATM   23  C27 UNL     1       5.345  52.054  -7.259  1.00  0.00     0.011 C 
HETATM   24  C28 UNL     1       5.149  52.682  -8.664  1.00  0.00    -0.022 C 
HETATM   25  C29 UNL     1       6.466  52.440  -9.460  1.00  0.00     0.017 C 
HETATM   26  C30 UNL     1       2.528  52.140 -11.757  1.00  0.00     0.018 C 
ENDROOT
BRANCH   4  27
HETATM   27  C8  UNL     1       3.828  50.415 -13.092  1.00  0.00     0.149 C 
HETATM   28  O1  UNL     1       4.798  49.674 -13.025  1.00  0.00    -0.649 OA
BRANCH  27  29
HETATM   29  O2  UNL     1       3.617  51.117 -14.220  1.00  0.00    -0.776 OA
HETATM   30  H11 UNL     1       4.328  50.812 -14.819  1.00  0.00     0.167 HD
ENDBRANCH  27  29
ENDBRANCH   4  27
BRANCH   1  31
HETATM   31  C2  UNL     1       0.248  53.348 -10.866  1.00  0.00    -0.088 C 
HETATM   32  C1  UNL     1       0.500  54.667 -10.920  1.00  0.00     0.014 C 
HETATM   33  C3  UNL     1      -0.677  52.818  -9.796  1.00  0.00     0.043 C 
ENDBRANCH   1  31
BRANCH   7  34
HETATM   34  C12 UNL     1       2.680  51.838  -8.516  1.00  0.00     0.149 C 
HETATM   35  O3  UNL     1       2.048  52.749  -8.003  1.00  0.00    -0.649 OA
BRANCH  34  36
HETATM   36  O4  UNL     1       2.257  50.584  -8.306  1.00  0.00    -0.776 OA
HETATM   37  H16 UNL     1       1.500  50.690  -7.692  1.00  0.00     0.167 HD
ENDBRANCH  34  36
ENDBRANCH   7  34
TORSDOF 5
ENDMDL
