MODEL 1
REMARK minimizedAffinity -8.34746456
REMARK CNNscore 0.773421705
REMARK CNNaffinity 7.10156679
REMARK  10 active torsions:
REMARK  status: ('A' for Active; 'I' for Inactive)
REMARK    1  A    between atoms: C19_21  and  O3_22 
REMARK    2  A    between atoms: C19_21  and  C20_23 
REMARK    3  A    between atoms: C20_23  and  C21_25 
REMARK    4  A    between atoms: C21_25  and  O5_26 
REMARK    5  A    between atoms: O5_26  and  C22_27 
REMARK    6  A    between atoms: C22_27  and  C23_29 
REMARK    7  A    between atoms: C23_29  and  C24_30 
REMARK    8  A    between atoms: C24_30  and  C25_31 
REMARK       I    between atoms: C25_31  and  N1_33 
REMARK    9  A    between atoms: N1_33  and  C26_34 
REMARK   10  A    between atoms: C26_34  and  C27_35 
ROOT
HETATM    1  C1  UNL     1      -4.261  51.200 -24.598  1.00  0.00     0.021 C 
HETATM    2  C2  UNL     1      -3.602  49.803 -24.607  1.00  0.00    -0.009 C 
HETATM    3  C3  UNL     1      -2.380  49.802 -25.576  1.00  0.00     0.022 C 
HETATM    4  C4  UNL     1      -2.762  49.856 -27.049  1.00  0.00     0.084 C 
HETATM    5  C5  UNL     1      -3.698  48.728 -27.390  1.00  0.00     0.149 C 
HETATM    6  O1  UNL     1      -3.738  48.219 -28.508  1.00  0.00    -0.293 OA
HETATM    7  C6  UNL     1      -4.662  48.286 -26.357  1.00  0.00     0.053 C 
HETATM    8  C7  UNL     1      -4.656  48.799 -25.113  1.00  0.00    -0.067 C 
HETATM    9  C8  UNL     1      -5.752  48.415 -24.149  1.00  0.00     0.035 C 
HETATM   10  C9  UNL     1      -5.197  47.970 -22.803  1.00  0.00     0.010 C 
HETATM   11  C10 UNL     1      -4.280  49.042 -22.200  1.00  0.00     0.003 C 
HETATM   12  C11 UNL     1      -3.112  49.357 -23.181  1.00  0.00     0.072 C 
HETATM   13  C12 UNL     1      -2.098  50.302 -22.500  1.00  0.00     0.133 C 
HETATM   14  O2  UNL     1      -1.653  51.316 -23.034  1.00  0.00    -0.297 OA
HETATM   15  C13 UNL     1      -1.597  49.889 -21.121  1.00  0.00     0.091 C 
HETATM   16  C14 UNL     1      -2.790  49.648 -20.189  1.00  0.00     0.005 C 
HETATM   17  C15 UNL     1      -3.512  50.999 -19.933  1.00  0.00     0.019 C 
HETATM   18  C16 UNL     1      -3.695  48.583 -20.858  1.00  0.00     0.002 C 
HETATM   19  C17 UNL     1      -4.659  48.178 -19.747  1.00  0.00     0.009 C 
HETATM   20  C18 UNL     1      -3.842  48.314 -18.445  1.00  0.00     0.047 C 
HETATM   21  C19 UNL     1      -2.481  48.927 -18.845  1.00  0.00     0.128 C 
ENDROOT
BRANCH  21  22
HETATM   22  O3  UNL     1      -1.588  47.826 -19.097  1.00  0.00    -0.381 OA
HETATM   23  H25 UNL     1      -0.677  48.178 -19.019  1.00  0.00     0.211 HD
ENDBRANCH  21  22
BRANCH  21  24
HETATM   24  C20 UNL     1      -1.772  49.810 -17.803  1.00  0.00     0.185 C 
HETATM   25  O4  UNL     1      -2.381  50.779 -17.332  1.00  0.00    -0.292 OA
BRANCH  24  26
HETATM   26  C21 UNL     1      -0.351  49.461 -17.372  1.00  0.00     0.260 C 
BRANCH  26  27
HETATM   27  O5  UNL     1       0.476  50.616 -17.233  1.00  0.00    -0.314 OA
BRANCH  27  28
HETATM   28  C22 UNL     1       0.709  50.975 -15.939  1.00  0.00     0.259 C 
HETATM   29  O6  UNL     1       0.353  50.332 -14.961  1.00  0.00    -0.265 OA
BRANCH  28  30
HETATM   30  C23 UNL     1       1.495  52.262 -15.886  1.00  0.00     0.120 C 
BRANCH  30  31
HETATM   31  C24 UNL     1       2.912  52.006 -15.386  1.00  0.00     0.112 C 
BRANCH  31  32
HETATM   32  C25 UNL     1       2.919  51.614 -13.920  1.00  0.00     0.218 C 
HETATM   33  O7  UNL     1       3.596  50.692 -13.478  1.00  0.00    -0.274 OA
HETATM   34  N1  UNL     1       2.065  52.371 -13.151  1.00  0.00    -0.357 N 
HETATM   35  H32 UNL     1       1.693  53.226 -13.542  1.00  0.00     0.162 HD
BRANCH  34  36
HETATM   36  C26 UNL     1       2.011  52.225 -11.713  1.00  0.00     0.161 C 
BRANCH  36  37
HETATM   37  C27 UNL     1       2.408  53.502 -11.021  1.00  0.00    -0.038 A 
HETATM   38  C28 UNL     1       3.740  53.925 -10.989  1.00  0.00     0.025 A 
HETATM   39  C29 UNL     1       4.046  55.107 -10.331  1.00  0.00     0.088 A 
HETATM   40  N2  UNL     1       3.132  55.881  -9.709  1.00  0.00    -0.375 N 
HETATM   41  C30 UNL     1       1.853  55.452  -9.743  1.00  0.00     0.088 A 
ATOM     42  H2  UNL     1       3.396  56.747  -9.236  1.00  0.00     0.164 HD
HETATM   43  C31 UNL     1       1.447  54.289 -10.378  1.00  0.00     0.025 A 
ENDBRANCH  36  37
ENDBRANCH  34  36
ENDBRANCH  31  32
ENDBRANCH  30  31
ENDBRANCH  28  30
ENDBRANCH  27  28
ENDBRANCH  26  27
ENDBRANCH  24  26
ENDBRANCH  21  24
TORSDOF 10
ENDMDL
