MODEL 1
REMARK minimizedAffinity -8.98535252
REMARK  7 active torsions:
REMARK  status: ('A' for Active; 'I' for Inactive)
REMARK    1  A    between atoms: C2_2  and  C4_4 
REMARK    2  A    between atoms: C7_7  and  O1_9 
REMARK    3  A    between atoms: C9_10  and  C10_11 
REMARK    4  A    between atoms: C11_12  and  C12_13 
REMARK    5  A    between atoms: C14_15  and  C15_16 
REMARK    6  A    between atoms: C24_26  and  C26_28 
REMARK    7  A    between atoms: C29_32  and  O4_34 
ROOT
HETATM    1  C15 UNL     1      -0.002   5.754  10.898  1.00  0.00     0.149 C 
HETATM    2  C16 UNL     1       1.287   5.573  11.690  1.00  0.00     0.054 C 
HETATM    3  C17 UNL     1       2.196   6.736  11.236  1.00  0.00     0.050 C 
HETATM    4  C18 UNL     1       1.088   7.807  11.047  1.00  0.00     0.272 C 
HETATM    5  O2  UNL     1       0.640   8.407  12.260  1.00  0.00    -0.360 OA
HETATM    6  C19 UNL     1       1.393   9.538  12.651  1.00  0.00     0.171 C 
HETATM    7  C20 UNL     1       2.501   9.149  13.614  1.00  0.00     0.027 C 
HETATM    8  C21 UNL     1       2.834   7.661  13.645  1.00  0.00     0.012 C 
HETATM    9  C22 UNL     1       3.309   7.032  12.315  1.00  0.00     0.032 C 
HETATM   10  C23 UNL     1       4.548   7.763  11.754  1.00  0.00    -0.066 C 
HETATM   11  C24 UNL     1       5.790   7.711  12.298  1.00  0.00    -0.021 C 
HETATM   12  C25 UNL     1       6.988   8.445  11.761  1.00  0.00     0.052 C 
HETATM   13  C27 UNL     1       4.277   8.531  10.483  1.00  0.00     0.038 C 
HETATM   14  C28 UNL     1       3.736   7.635   9.370  1.00  0.00     0.042 C 
HETATM   15  C29 UNL     1       2.919   6.414   9.858  1.00  0.00     0.067 C 
HETATM   16  C30 UNL     1       3.837   5.171   9.919  1.00  0.00     0.047 C 
HETATM   17  O5  UNL     1      -0.064   7.134  10.512  1.00  0.00    -0.351 OA
ENDROOT
BRANCH   1  18
HETATM   18  C14 UNL     1      -1.229   5.443  11.710  1.00  0.00     0.011 C 
HETATM   19  C12 UNL     1      -1.802   4.241  11.926  1.00  0.00    -0.064 C 
HETATM   20  C13 UNL     1      -1.243   2.945  11.397  1.00  0.00     0.048 C 
BRANCH  19  21
HETATM   21  C11 UNL     1      -3.019   4.187  12.737  1.00  0.00     0.003 C 
HETATM   22  C10 UNL     1      -4.190   4.783  12.458  1.00  0.00    -0.018 C 
BRANCH  22  23
HETATM   23  C9  UNL     1      -5.462   4.739  13.282  1.00  0.00     0.050 C 
HETATM   24  C4  UNL     1      -6.161   6.085  13.658  1.00  0.00     0.024 C 
HETATM   25  C5  UNL     1      -7.614   5.643  13.905  1.00  0.00     0.013 C 
HETATM   26  C6  UNL     1      -7.884   4.672  12.768  1.00  0.00     0.039 C 
HETATM   27  C7  UNL     1      -6.595   3.845  12.664  1.00  0.00     0.062 C 
HETATM   28  C8  UNL     1      -6.389   3.366  11.228  1.00  0.00     0.046 C 
BRANCH  24  29
HETATM   29  C2  UNL     1      -5.511   6.858  14.808  1.00  0.00    -0.088 C 
HETATM   30  C1  UNL     1      -4.394   6.473  15.451  1.00  0.00     0.014 C 
HETATM   31  C3  UNL     1      -6.224   8.106  15.267  1.00  0.00     0.043 C 
ENDBRANCH  24  29
BRANCH  27  32
HETATM   32  O1  UNL     1      -6.744   2.660  13.462  1.00  0.00    -0.390 OA
HETATM   33  H14 UNL     1      -6.920   2.929  14.380  1.00  0.00     0.210 HD
ENDBRANCH  27  32
ENDBRANCH  22  23
ENDBRANCH  19  21
ENDBRANCH   1  18
BRANCH  15  34
HETATM   34  O4  UNL     1       1.973   6.124   8.825  1.00  0.00    -0.389 OA
HETATM   35  H44 UNL     1       2.455   5.918   8.004  1.00  0.00     0.210 HD
ENDBRANCH  15  34
BRANCH  11  36
HETATM   36  C26 UNL     1       6.104   6.899  13.514  1.00  0.00     0.265 C 
HETATM   37  O3  UNL     1       7.055   7.114  14.253  1.00  0.00    -0.302 OA
ENDBRANCH  11  36
TORSDOF 7
ENDMDL
