MODEL 1
REMARK minimizedAffinity -9.76819038
REMARK CNNscore 0.789254189
REMARK CNNaffinity 7.49671364
REMARK  15 active torsions:
REMARK  status: ('A' for Active; 'I' for Inactive)
REMARK    1  A    between atoms: O1_2  and  C2_3 
REMARK    2  A    between atoms: C3_4  and  O2_5 
REMARK    3  A    between atoms: C4_6  and  O3_7 
REMARK    4  A    between atoms: C5_8  and  O4_9 
REMARK    5  A    between atoms: O4_9  and  C6_10 
REMARK    6  A    between atoms: C6_10  and  C7_11 
REMARK    7  A    between atoms: C6_10  and  C17_22 
REMARK    8  A    between atoms: C7_11  and  C8_12 
REMARK    9  A    between atoms: C19_24  and  C20_25 
REMARK   10  A    between atoms: C20_25  and  C21_26 
REMARK   11  A    between atoms: C22_27  and  O6_28 
REMARK   12  A    between atoms: C26_33  and  C27_34 
REMARK   13  A    between atoms: C28_36  and  O8_37 
REMARK   14  A    between atoms: C29_39  and  C30_40 
REMARK   15  A    between atoms: C30_40  and  O10_41 
ROOT
HETATM    1  C6  UNL     1       0.011   8.248  12.978  1.00  0.00     0.153 C 
ENDROOT
BRANCH   1   2
HETATM    2  O4  UNL     1       0.356   9.212  13.990  1.00  0.00    -0.349 OA
BRANCH   2   3
HETATM    3  C5  UNL     1       0.176   8.752  15.332  1.00  0.00     0.292 C 
HETATM    4  C4  UNL     1       0.963   7.437  15.583  1.00  0.00     0.204 C 
HETATM    5  C3  UNL     1       2.396   7.671  16.103  1.00  0.00     0.183 C 
HETATM    6  C2  UNL     1       2.907   9.033  15.624  1.00  0.00     0.183 C 
HETATM    7  C29 UNL     1       1.960  10.106  16.219  1.00  0.00     0.179 C 
HETATM    8  O9  UNL     1       0.574   9.732  16.284  1.00  0.00    -0.348 OA
BRANCH   4   9
HETATM    9  O3  UNL     1       0.290   6.601  16.544  1.00  0.00    -0.388 OA
HETATM   10  H8  UNL     1       0.105   7.151  17.330  1.00  0.00     0.210 HD
ENDBRANCH   4   9
BRANCH   5  11
HETATM   11  O2  UNL     1       3.217   6.587  15.645  1.00  0.00    -0.390 OA
HETATM   12  H6  UNL     1       2.803   5.767  15.976  1.00  0.00     0.210 HD
ENDBRANCH   5  11
BRANCH   6  13
HETATM   13  O1  UNL     1       4.236   9.379  16.055  1.00  0.00    -0.385 OA
HETATM   14  C1  UNL     1       5.188   9.445  14.996  1.00  0.00     0.202 C 
ENDBRANCH   6  13
BRANCH   7  15
HETATM   15  C30 UNL     1       2.124  11.434  15.479  1.00  0.00     0.198 C 
BRANCH  15  16
HETATM   16  O10 UNL     1       2.185  11.296  14.058  1.00  0.00    -0.398 OA
HETATM   17  H43 UNL     1       1.643  10.514  13.822  1.00  0.00     0.209 HD
ENDBRANCH  15  16
ENDBRANCH   7  15
ENDBRANCH   2   3
ENDBRANCH   1   2
BRANCH   1  18
HETATM   18  C7  UNL     1       0.448   8.787  11.580  1.00  0.00     0.047 C 
BRANCH  18  19
HETATM   19  C8  UNL     1       1.152   7.823  10.547  1.00  0.00    -0.028 C 
HETATM   20  C9  UNL     1       0.672   6.369  10.745  1.00  0.00     0.016 C 
HETATM   21  C10 UNL     1       0.901   8.320   9.059  1.00  0.00    -0.009 C 
HETATM   22  C11 UNL     1      -0.560   8.397   8.601  1.00  0.00     0.011 C 
HETATM   23  C12 UNL     1       1.682   7.486   8.023  1.00  0.00     0.012 C 
HETATM   24  C13 UNL     1       3.177   7.527   8.282  1.00  0.00     0.079 C 
HETATM   25  C14 UNL     1       3.468   7.122   9.703  1.00  0.00     0.131 C 
HETATM   26  O5  UNL     1       4.313   6.262   9.948  1.00  0.00    -0.298 OA
HETATM   27  C15 UNL     1       2.718   7.895  10.791  1.00  0.00     0.060 C 
HETATM   28  C16 UNL     1       3.212   7.437  12.169  1.00  0.00     0.018 C 
ENDBRANCH  18  19
ENDBRANCH   1  18
BRANCH   1  29
HETATM   29  C17 UNL     1      -1.502   7.967  13.004  1.00  0.00    -0.059 C 
HETATM   30  C18 UNL     1      -2.381   9.156  12.738  1.00  0.00     0.046 C 
HETATM   31  C19 UNL     1      -2.011   6.759  13.338  1.00  0.00    -0.017 C 
BRANCH  31  32
HETATM   32  C20 UNL     1      -3.429   6.331  13.652  1.00  0.00     0.072 C 
BRANCH  32  33
HETATM   33  C21 UNL     1      -3.946   5.033  13.072  1.00  0.00     0.014 A 
HETATM   34  C22 UNL     1      -5.316   4.739  13.061  1.00  0.00     0.097 A 
HETATM   35  C23 UNL     1      -5.817   3.536  12.521  1.00  0.00     0.074 A 
HETATM   36 CL1  UNL     1      -7.532   3.262  12.597  1.00  0.00    -0.081 Cl
HETATM   37  C24 UNL     1      -4.947   2.607  11.921  1.00  0.00    -0.021 A 
HETATM   38  C25 UNL     1      -5.445   1.330  11.292  1.00  0.00     0.051 C 
HETATM   39  C26 UNL     1      -3.568   2.915  11.912  1.00  0.00     0.043 A 
HETATM   40  C28 UNL     1      -3.076   4.100  12.491  1.00  0.00     0.088 A 
BRANCH  34  41
HETATM   41  O6  UNL     1      -6.178   5.675  13.587  1.00  0.00    -0.358 OA
HETATM   42  H34 UNL     1      -6.933   5.181  13.977  1.00  0.00     0.217 HD
ENDBRANCH  34  41
BRANCH  39  43
HETATM   43  C27 UNL     1      -2.600   2.025  11.236  1.00  0.00     0.273 C 
HETATM   44  O7  UNL     1      -1.763   2.443  10.445  1.00  0.00    -0.301 OA
ENDBRANCH  39  43
BRANCH  40  45
HETATM   45  O8  UNL     1      -1.736   4.394  12.507  1.00  0.00    -0.359 OA
HETATM   46  H39 UNL     1      -1.196   3.582  12.498  1.00  0.00     0.217 HD
ENDBRANCH  40  45
ENDBRANCH  32  33
ENDBRANCH  31  32
ENDBRANCH   1  29
TORSDOF 15
ENDMDL
