MODEL 1
REMARK minimizedAffinity -9.37807178
REMARK CNNscore 0.65406692
REMARK CNNaffinity 7.53963661
REMARK  10 active torsions:
REMARK  status: ('A' for Active; 'I' for Inactive)
REMARK    1  A    between atoms: C3_3  and  O1_4 
REMARK    2  A    between atoms: N1_14  and  O2_16 
REMARK    3  A    between atoms: O2_16  and  C13_17 
REMARK    4  A    between atoms: C13_17  and  C14_18 
REMARK       I    between atoms: C14_18  and  N2_20 
REMARK    5  A    between atoms: N2_20  and  C15_21 
REMARK    6  A    between atoms: C15_21  and  C16_22 
REMARK    7  A    between atoms: C15_21  and  C19_29 
REMARK       I    between atoms: C16_22  and  N3_24 
REMARK    8  A    between atoms: N3_24  and  C17_25 
REMARK    9  A    between atoms: C17_25  and  C18_26 
REMARK   10  A    between atoms: C18_26  and  O6_28 
ROOT
HETATM    1  C1  UNL     1     -14.481   8.888  15.545  1.00  0.00     0.015 C 
HETATM    2  C2  UNL     1     -13.600   8.794  14.734  1.00  0.00    -0.078 C 
HETATM    3  C3  UNL     1     -12.506   8.697  13.741  1.00  0.00     0.128 C 
HETATM    4  C4  UNL     1     -11.558   9.898  13.895  1.00  0.00     0.052 C 
HETATM    5  C5  UNL     1     -10.409   9.426  14.799  1.00  0.00     0.010 C 
HETATM    6  C6  UNL     1     -10.678   7.942  15.117  1.00  0.00     0.002 C 
HETATM    7  C7  UNL     1      -9.430   7.068  15.360  1.00  0.00    -0.004 C 
HETATM    8  C8  UNL     1      -8.537   7.669  16.455  1.00  0.00     0.010 C 
HETATM    9  C9  UNL     1      -7.385   6.734  16.798  1.00  0.00     0.035 C 
HETATM   10  C10 UNL     1      -6.571   6.358  15.584  1.00  0.00    -0.069 C 
HETATM   11  C11 UNL     1      -5.228   6.395  15.655  1.00  0.00     0.030 C 
HETATM   12  C12 UNL     1      -4.368   5.856  14.571  1.00  0.00     0.032 C 
HETATM   13  N1  UNL     1      -3.085   5.791  14.792  1.00  0.00    -0.271 N 
ATOM     14  H1  UNL     1      -2.630   6.140  15.636  1.00  0.00     0.194 HD
HETATM   15  C22 UNL     1      -5.037   5.332  13.317  1.00  0.00     0.060 C 
HETATM   16  C23 UNL     1      -6.411   5.955  13.106  1.00  0.00     0.020 C 
HETATM   17  C24 UNL     1      -7.341   5.875  14.350  1.00  0.00    -0.016 C 
HETATM   18  C25 UNL     1      -7.742   4.401  14.592  1.00  0.00     0.020 C 
HETATM   19  C26 UNL     1      -8.598   6.798  14.081  1.00  0.00     0.002 C 
HETATM   20  C27 UNL     1      -9.509   6.273  12.952  1.00  0.00     0.007 C 
HETATM   21  C28 UNL     1     -10.706   7.188  12.689  1.00  0.00     0.014 C 
HETATM   22  C29 UNL     1     -11.570   7.465  13.951  1.00  0.00     0.003 C 
HETATM   23  C30 UNL     1     -12.349   6.181  14.308  1.00  0.00     0.020 C 
ENDROOT
BRANCH   3  24
HETATM   24  O1  UNL     1     -13.072   8.691  12.435  1.00  0.00    -0.377 OA
HETATM   25  H2  UNL     1     -13.883   9.224  12.470  1.00  0.00     0.211 HD
ENDBRANCH   3  24
BRANCH  13  26
HETATM   26  O2  UNL     1      -2.407   5.182  13.725  1.00  0.00    -0.271 OA
BRANCH  26  27
HETATM   27  C13 UNL     1      -1.006   5.274  13.963  1.00  0.00     0.303 C 
BRANCH  27  28
HETATM   28  C14 UNL     1      -0.270   5.378  12.634  1.00  0.00     0.244 C 
HETATM   29  O3  UNL     1      -0.553   4.684  11.661  1.00  0.00    -0.271 OA
HETATM   30  N2  UNL     1       0.790   6.264  12.639  1.00  0.00    -0.346 N 
HETATM   31  H16 UNL     1       0.809   6.927  13.410  1.00  0.00     0.163 HD
BRANCH  30  32
HETATM   32  C15 UNL     1       1.503   6.607  11.398  1.00  0.00     0.180 C 
BRANCH  32  33
HETATM   33  C16 UNL     1       2.824   7.366  11.693  1.00  0.00     0.241 C 
HETATM   34  O4  UNL     1       2.849   8.503  12.157  1.00  0.00    -0.271 OA
HETATM   35  N3  UNL     1       3.966   6.618  11.523  1.00  0.00    -0.349 N 
HETATM   36  H18 UNL     1       3.889   5.775  10.962  1.00  0.00     0.163 HD
BRANCH  35  37
HETATM   37  C17 UNL     1       5.283   7.215  11.640  1.00  0.00     0.232 C 
BRANCH  37  38
HETATM   38  C18 UNL     1       6.371   6.294  11.110  1.00  0.00     0.158 C 
HETATM   39  O5  UNL     1       6.196   5.251  10.500  1.00  0.00    -0.649 OA
BRANCH  38  40
HETATM   40  O6  UNL     1       7.628   6.710  11.392  1.00  0.00    -0.775 OA
HETATM   41  H21 UNL     1       8.191   6.007  11.002  1.00  0.00     0.167 HD
ENDBRANCH  38  40
ENDBRANCH  37  38
ENDBRANCH  35  37
ENDBRANCH  32  33
BRANCH  32  42
HETATM   42  C19 UNL     1       0.573   7.404  10.451  1.00  0.00     0.009 C 
HETATM   43  C20 UNL     1      -0.113   8.595  11.128  1.00  0.00     0.012 C 
HETATM   44  C21 UNL     1       1.302   7.869   9.187  1.00  0.00     0.012 C 
ENDBRANCH  32  42
ENDBRANCH  30  32
ENDBRANCH  27  28
ENDBRANCH  26  27
ENDBRANCH  13  26
TORSDOF 10
ENDMDL
