MODEL 1
REMARK minimizedAffinity -12.281394
REMARK  5 active torsions:
REMARK  status: ('A' for Active; 'I' for Inactive)
REMARK    1  A    between atoms: N1_2  and  C2_3 
REMARK    2  A    between atoms: C4_5  and  N3_29 
REMARK    3  A    between atoms: C5_7  and  N2_12 
REMARK    4  A    between atoms: C7_9  and  O2_10 
REMARK    5  A    between atoms: C28_35  and  O4_36 
ROOT
HETATM    1  C2  UNL     1      -2.713  49.151 -19.238  1.00  0.00     0.257 C 
HETATM    2  C3  UNL     1      -1.322  49.399 -19.832  1.00  0.00     0.092 C 
HETATM    3  C4  UNL     1      -1.343  49.492 -21.363  1.00  0.00     0.234 C 
HETATM    4  O1  UNL     1      -2.570  49.083 -21.958  1.00  0.00    -0.333 OA
HETATM    5  C5  UNL     1      -3.792  49.680 -21.454  1.00  0.00     0.168 C 
HETATM    6  C6  UNL     1      -4.759  48.483 -21.612  1.00  0.00     0.074 C 
HETATM    7  C7  UNL     1      -3.722  50.086 -19.942  1.00  0.00     0.209 C 
ENDROOT
BRANCH   1   8
HETATM    8  N1  UNL     1      -2.753  49.395 -17.779  1.00  0.00     0.086 N 
HETATM    9  C1  UNL     1      -2.657  50.802 -17.417  1.00  0.00     0.307 C 
HETATM   10  H4  UNL     1      -3.624  48.999 -17.413  1.00  0.00     0.316 HD
ENDBRANCH   1   8
BRANCH   7  11
HETATM   11  O2  UNL     1      -3.223  51.428 -19.738  1.00  0.00    -0.384 OA
HETATM   12  C8  UNL     1      -2.370  51.542 -18.607  1.00  0.00     0.202 C 
ENDBRANCH   7  11
BRANCH   3  13
HETATM   13  N3  UNL     1      -0.882  50.759 -21.923  1.00  0.00    -0.316 N 
HETATM   14  C24 UNL     1      -0.124  51.694 -21.231  1.00  0.00     0.048 A 
HETATM   15  C19 UNL     1       0.234  52.700 -22.144  1.00  0.00     0.004 A 
HETATM   16  C23 UNL     1       0.282  51.733 -19.885  1.00  0.00     0.030 A 
HETATM   17  C18 UNL     1      -0.323  52.350 -23.411  1.00  0.00     0.022 A 
HETATM   18  C20 UNL     1       1.014  53.778 -21.673  1.00  0.00     0.014 A 
HETATM   19  C17 UNL     1      -0.364  52.841 -24.724  1.00  0.00     0.057 A 
HETATM   20  C25 UNL     1      -1.015  51.167 -23.213  1.00  0.00     0.077 A 
HETATM   21  C16 UNL     1      -1.069  52.231 -25.807  1.00  0.00     0.020 A 
HETATM   22  C27 UNL     1       0.302  54.032 -25.269  1.00  0.00     0.255 A 
HETATM   23  C15 UNL     1      -1.809  51.050 -25.636  1.00  0.00     0.017 A 
HETATM   24  C28 UNL     1      -0.851  53.053 -27.040  1.00  0.00     0.257 A 
HETATM   25  C14 UNL     1      -2.643  50.222 -26.434  1.00  0.00     0.004 A 
HETATM   26  C26 UNL     1      -1.799  50.489 -24.378  1.00  0.00     0.077 A 
HETATM   27  C9  UNL     1      -3.143  49.190 -25.614  1.00  0.00     0.049 A 
HETATM   28  C13 UNL     1      -3.052  50.291 -27.785  1.00  0.00     0.014 A 
HETATM   29  N2  UNL     1      -2.575  49.356 -24.351  1.00  0.00    -0.308 N 
HETATM   30  C10 UNL     1      -4.062  48.259 -26.137  1.00  0.00     0.030 A 
HETATM   31  C11 UNL     1      -4.445  48.350 -27.480  1.00  0.00     0.002 A 
HETATM   32  C12 UNL     1      -3.944  49.350 -28.298  1.00  0.00     0.001 A 
HETATM   33  N4  UNL     1      -0.075  54.157 -26.590  1.00  0.00    -0.326 N 
HETATM   34  H24 UNL     1       0.458  54.765 -27.196  1.00  0.00     0.165 HD
HETATM   35  O3  UNL     1       1.077  54.779 -24.708  1.00  0.00    -0.268 OA
HETATM   36  C21 UNL     1       1.413  53.825 -20.333  1.00  0.00     0.001 A 
HETATM   37  C22 UNL     1       1.052  52.814 -19.453  1.00  0.00     0.002 A 
BRANCH  24  38
HETATM   38  O4  UNL     1      -2.049  53.589 -27.531  1.00  0.00    -0.372 OA
HETATM   39  H26 UNL     1      -1.946  54.546 -27.419  1.00  0.00     0.212 HD
ENDBRANCH  24  38
ENDBRANCH   3  13
TORSDOF 5
ENDMDL
