MODEL 1
REMARK minimizedAffinity -8.12883186
REMARK CNNscore 0.888052583
REMARK CNNaffinity 7.31635857
REMARK  9 active torsions:
REMARK  status: ('A' for Active; 'I' for Inactive)
REMARK    1  A    between atoms: C2_2  and  O1_3 
REMARK    2  A    between atoms: O1_3  and  C3_4 
REMARK    3  A    between atoms: C14_15  and  O2_16 
REMARK    4  A    between atoms: O2_16  and  C15_17 
REMARK    5  A    between atoms: C21_24  and  O4_25 
REMARK    6  A    between atoms: O4_25  and  C22_26 
REMARK    7  A    between atoms: C24_29  and  O6_30 
REMARK    8  A    between atoms: C25_31  and  O7_32 
REMARK    9  A    between atoms: C26_33  and  O8_34 
ROOT
HETATM    1  C3  UNL     1      -4.117  49.717  -9.832  1.00  0.00     0.260 C 
HETATM    2  C4  UNL     1      -3.969  49.906 -11.351  1.00  0.00     0.065 C 
HETATM    3  C5  UNL     1      -2.567  50.414 -11.707  1.00  0.00    -0.007 C 
HETATM    4  C6  UNL     1      -2.386  50.482 -13.222  1.00  0.00     0.010 C 
HETATM    5  C7  UNL     1      -2.390  51.792 -11.033  1.00  0.00     0.027 C 
HETATM    6  C8  UNL     1      -3.061  51.837  -9.624  1.00  0.00     0.130 C 
HETATM    7  C9  UNL     1      -2.124  52.672  -8.716  1.00  0.00     0.042 C 
HETATM    8  C10 UNL     1      -1.229  53.449  -9.699  1.00  0.00    -0.029 C 
HETATM    9  C11 UNL     1      -2.107  54.635 -10.240  1.00  0.00     0.016 C 
HETATM   10  C12 UNL     1       0.088  54.108  -9.167  1.00  0.00     0.006 C 
HETATM   11  C13 UNL     1       0.556  53.678  -7.771  1.00  0.00     0.039 C 
HETATM   12  C14 UNL     1       1.813  54.455  -7.283  1.00  0.00     0.138 C 
HETATM   13  C17 UNL     1       2.442  55.426  -8.337  1.00  0.00     0.035 C 
HETATM   14  C18 UNL     1       3.816  56.122  -7.935  1.00  0.00    -0.015 C 
HETATM   15  C19 UNL     1       4.153  56.027  -6.429  1.00  0.00     0.018 C 
HETATM   16  C20 UNL     1       3.725  57.647  -8.223  1.00  0.00     0.018 C 
HETATM   17  C21 UNL     1       5.014  55.522  -8.741  1.00  0.00     0.133 C 
HETATM   18  C27 UNL     1       4.812  55.594 -10.267  1.00  0.00     0.034 C 
HETATM   19  C28 UNL     1       3.353  55.554 -10.724  1.00  0.00     0.013 C 
HETATM   20  C29 UNL     1       2.507  54.785  -9.749  1.00  0.00    -0.025 A 
HETATM   21  C30 UNL     1       2.530  53.290  -9.914  1.00  0.00     0.021 A 
HETATM   22  C31 UNL     1       1.237  54.037 -10.197  1.00  0.00    -0.027 A 
HETATM   23  C32 UNL     1       0.784  54.056 -11.648  1.00  0.00     0.011 C 
HETATM   24  C33 UNL     1      -0.253  52.967 -11.994  1.00  0.00     0.011 C 
HETATM   25  C34 UNL     1      -0.950  52.340 -10.773  1.00  0.00    -0.030 C 
HETATM   26  C35 UNL     1      -0.072  51.167 -10.249  1.00  0.00     0.016 C 
HETATM   27  O9  UNL     1      -3.215  50.534  -9.081  1.00  0.00    -0.356 OA
ENDROOT
BRANCH  17  28
HETATM   28  O4  UNL     1       5.224  54.172  -8.294  1.00  0.00    -0.353 OA
BRANCH  28  29
HETATM   29  C22 UNL     1       6.599  53.760  -8.214  1.00  0.00     0.291 C 
HETATM   30  O5  UNL     1       7.061  53.112  -9.396  1.00  0.00    -0.356 OA
HETATM   31  C23 UNL     1       6.442  51.839  -9.612  1.00  0.00     0.205 C 
HETATM   32  C24 UNL     1       6.699  50.860  -8.460  1.00  0.00     0.173 C 
HETATM   33  C25 UNL     1       6.209  51.462  -7.145  1.00  0.00     0.182 C 
HETATM   34  C26 UNL     1       6.795  52.869  -6.958  1.00  0.00     0.204 C 
BRANCH  32  35
HETATM   35  O6  UNL     1       8.096  50.569  -8.359  1.00  0.00    -0.391 OA
HETATM   36  H39 UNL     1       8.402  50.288  -9.239  1.00  0.00     0.210 HD
ENDBRANCH  32  35
BRANCH  33  37
HETATM   37  O7  UNL     1       4.777  51.484  -7.129  1.00  0.00    -0.390 OA
HETATM   38  H41 UNL     1       4.530  52.000  -6.336  1.00  0.00     0.210 HD
ENDBRANCH  33  37
BRANCH  34  39
HETATM   39  O8  UNL     1       6.215  53.467  -5.787  1.00  0.00    -0.388 OA
HETATM   40  H43 UNL     1       5.590  54.141  -6.117  1.00  0.00     0.210 HD
ENDBRANCH  34  39
ENDBRANCH  28  29
ENDBRANCH  17  28
BRANCH  12  41
HETATM   41  O2  UNL     1       1.394  55.241  -6.137  1.00  0.00    -0.316 OA
BRANCH  41  42
HETATM   42  C15 UNL     1       0.136  55.764  -6.193  1.00  0.00     0.255 C 
HETATM   43  C16 UNL     1       0.163  57.091  -6.893  1.00  0.00     0.126 C 
HETATM   44  O3  UNL     1      -0.877  55.244  -5.747  1.00  0.00    -0.266 OA
ENDBRANCH  41  42
ENDBRANCH  12  41
BRANCH   1  45
HETATM   45  O1  UNL     1      -5.476  49.970  -9.479  1.00  0.00    -0.362 OA
BRANCH  45  46
HETATM   46  C2  UNL     1      -6.401  49.565 -10.486  1.00  0.00     0.166 C 
HETATM   47  C1  UNL     1      -7.823  49.597  -9.954  1.00  0.00     0.033 C 
ENDBRANCH  45  46
ENDBRANCH   1  45
TORSDOF 9
ENDMDL
