MODEL 1
REMARK minimizedAffinity -5.82267714
REMARK  1 active torsions:
REMARK  status: ('A' for Active; 'I' for Inactive)
REMARK    1  A    between atoms: N1_2  and  C2_3 
ROOT
HETATM    1  C2  UNL     1      -0.853  52.834 -26.990  1.00  0.00     0.164 C 
HETATM    2  C3  UNL     1      -0.592  54.101 -27.826  1.00  0.00     0.050 C 
HETATM    3  C4  UNL     1      -0.110  51.570 -27.557  1.00  0.00     0.025 C 
HETATM    4  C5  UNL     1       1.407  51.797 -27.727  1.00  0.00     0.007 C 
HETATM    5  C6  UNL     1       1.930  51.779 -26.289  1.00  0.00     0.006 C 
HETATM    6  C7  UNL     1       0.646  51.601 -25.461  1.00  0.00    -0.004 C 
HETATM    7  C8  UNL     1      -0.120  50.619 -26.356  1.00  0.00     0.012 C 
HETATM    8  C9  UNL     1      -0.260  52.884 -25.495  1.00  0.00    -0.008 C 
HETATM    9  C10 UNL     1       0.513  54.171 -25.144  1.00  0.00     0.018 C 
HETATM   10  C11 UNL     1      -1.328  52.734 -24.376  1.00  0.00     0.018 C 
ENDROOT
BRANCH   1  11
HETATM   11  N1  UNL     1      -2.321  52.617 -26.931  1.00  0.00     0.089 N 
HETATM   12  C1  UNL     1      -2.856  51.486 -27.673  1.00  0.00     0.307 C 
HETATM   13  H4  UNL     1      -2.793  53.466 -27.244  1.00  0.00     0.316 HD
ENDBRANCH   1  11
TORSDOF 1
ENDMDL
