MODEL 1
REMARK minimizedAffinity -9.55498505
REMARK  9 active torsions:
REMARK  status: ('A' for Active; 'I' for Inactive)
REMARK    1  A    between atoms: C12_14  and  C13_15 
REMARK    2  A    between atoms: C13_15  and  C15_17 
REMARK    3  A    between atoms: C15_17  and  C16_18 
REMARK    4  A    between atoms: C16_18  and  C17_19 
REMARK    5  A    between atoms: C18_20  and  C20_22 
REMARK    6  A    between atoms: C26_29  and  C27_30 
REMARK    7  A    between atoms: C27_30  and  C28_31 
REMARK    8  A    between atoms: C28_31  and  C29_32 
REMARK    9  A    between atoms: C29_32  and  O5_34 
ROOT
HETATM    1  C1  UNL     1      -0.002  50.195 -16.958  1.00  0.00     0.025 C 
HETATM    2  C2  UNL     1      -1.075  50.257 -17.757  1.00  0.00     0.015 C 
HETATM    3  C3  UNL     1      -1.994  49.103 -17.861  1.00  0.00     0.289 C 
HETATM    4  O1  UNL     1      -1.766  47.958 -17.512  1.00  0.00    -0.260 OA
HETATM    5  O2  UNL     1      -3.149  49.544 -18.419  1.00  0.00    -0.311 OA
HETATM    6  C4  UNL     1      -3.103  50.969 -18.585  1.00  0.00     0.142 C 
HETATM    7  C5  UNL     1      -3.850  51.346 -19.853  1.00  0.00     0.039 C 
HETATM    8  C6  UNL     1      -3.185  50.720 -21.089  1.00  0.00     0.006 C 
HETATM    9  C7  UNL     1      -1.760  51.288 -21.258  1.00  0.00    -0.027 A 
HETATM   10  C8  UNL     1      -1.501  52.064 -22.556  1.00  0.00     0.011 C 
HETATM   11  C9  UNL     1      -2.097  51.469 -23.847  1.00  0.00     0.011 C 
HETATM   12  C10 UNL     1      -3.193  50.415 -23.628  1.00  0.00    -0.032 C 
HETATM   13  C11 UNL     1      -2.506  49.025 -23.465  1.00  0.00     0.016 C 
HETATM   14  C12 UNL     1      -4.289  50.305 -24.739  1.00  0.00    -0.002 C 
HETATM   15  C21 UNL     1      -5.491  49.687 -23.964  1.00  0.00     0.006 C 
HETATM   16  C22 UNL     1      -5.222  49.865 -22.460  1.00  0.00     0.011 C 
HETATM   17  C23 UNL     1      -4.043  50.854 -22.382  1.00  0.00    -0.032 C 
HETATM   18  C24 UNL     1      -4.671  52.282 -22.495  1.00  0.00     0.016 C 
HETATM   19  C25 UNL     1      -0.581  50.467 -20.772  1.00  0.00     0.022 A 
HETATM   20  C26 UNL     1      -0.991  51.663 -19.942  1.00  0.00    -0.021 A 
HETATM   21  C30 UNL     1      -1.635  51.392 -18.556  1.00  0.00     0.063 C 
ENDROOT
BRANCH  14  22
HETATM   22  C13 UNL     1      -3.988  49.543 -26.067  1.00  0.00    -0.014 C 
HETATM   23  C14 UNL     1      -4.690  48.181 -26.116  1.00  0.00     0.010 C 
BRANCH  22  24
HETATM   24  C15 UNL     1      -2.455  49.361 -26.244  1.00  0.00     0.008 C 
BRANCH  24  25
HETATM   25  C16 UNL     1      -1.771  50.493 -27.021  1.00  0.00     0.028 C 
BRANCH  25  26
HETATM   26  C17 UNL     1      -0.347  50.667 -26.562  1.00  0.00    -0.017 C 
HETATM   27  C18 UNL     1       0.604  51.430 -27.132  1.00  0.00    -0.028 C 
HETATM   28  C19 UNL     1       0.484  52.274 -28.363  1.00  0.00     0.051 C 
BRANCH  27  29
HETATM   29  C20 UNL     1       1.941  51.447 -26.469  1.00  0.00     0.265 C 
HETATM   30  O3  UNL     1       2.898  52.065 -26.920  1.00  0.00    -0.302 OA
ENDBRANCH  27  29
ENDBRANCH  25  26
ENDBRANCH  24  25
ENDBRANCH  22  24
ENDBRANCH  14  22
BRANCH  20  31
HETATM   31  C27 UNL     1      -0.159  52.954 -19.996  1.00  0.00     0.021 C 
BRANCH  31  32
HETATM   32  C28 UNL     1       1.221  52.841 -20.631  1.00  0.00     0.111 C 
BRANCH  32  33
HETATM   33  C29 UNL     1       1.458  53.876 -21.696  1.00  0.00     0.139 C 
HETATM   34  O4  UNL     1       2.034  54.942 -21.570  1.00  0.00    -0.650 OA
BRANCH  33  35
HETATM   35  O5  UNL     1       1.010  53.475 -22.903  1.00  0.00    -0.776 OA
HETATM   36  H41 UNL     1       1.235  54.219 -23.503  1.00  0.00     0.167 HD
ENDBRANCH  33  35
ENDBRANCH  32  33
ENDBRANCH  31  32
ENDBRANCH  20  31
TORSDOF 9
ENDMDL
