MODEL 1
REMARK minimizedAffinity -8.35969448
REMARK CNNscore 0.540582836
REMARK CNNaffinity 6.90129137
REMARK  15 active torsions:
REMARK  status: ('A' for Active; 'I' for Inactive)
REMARK    1  A    between atoms: C2_2  and  C3_3 
REMARK    2  A    between atoms: C3_3  and  C4_4 
REMARK    3  A    between atoms: C4_4  and  C5_5 
REMARK    4  A    between atoms: C5_5  and  C6_6 
REMARK    5  A    between atoms: C6_6  and  C7_7 
REMARK    6  A    between atoms: C7_7  and  C8_8 
REMARK    7  A    between atoms: C7_7  and  C30_36 
REMARK    8  A    between atoms: C9_9  and  C11_11 
REMARK    9  A    between atoms: C11_11  and  O1_12 
REMARK   10  A    between atoms: C11_11  and  C12_13 
REMARK   11  A    between atoms: C12_13  and  C14_15 
REMARK   12  A    between atoms: C14_15  and  O3_17 
REMARK   13  A    between atoms: O3_17  and  C15_18 
REMARK   14  A    between atoms: C27_31  and  O5_32 
REMARK   15  A    between atoms: C30_36  and  O7_37 
ROOT
HETATM    1  C14 UNL     1      -5.005  48.249 -27.470  1.00  0.00     0.266 C 
HETATM    2  O2  UNL     1      -5.539  47.770 -26.478  1.00  0.00    -0.265 OA
ENDROOT
BRANCH   1   3
HETATM    3  C12 UNL     1      -3.610  48.831 -27.498  1.00  0.00     0.114 C 
HETATM    4  C13 UNL     1      -2.978  48.592 -26.127  1.00  0.00     0.023 C 
BRANCH   3   5
HETATM    5  C11 UNL     1      -3.698  50.309 -27.898  1.00  0.00     0.159 C 
BRANCH   5   6
HETATM    6  C9  UNL     1      -2.742  51.212 -27.126  1.00  0.00    -0.058 C 
HETATM    7  C8  UNL     1      -1.432  51.273 -27.448  1.00  0.00    -0.015 C 
HETATM    8  C10 UNL     1      -3.377  51.960 -25.984  1.00  0.00     0.046 C 
BRANCH   7   9
HETATM    9  C7  UNL     1      -0.340  52.074 -26.760  1.00  0.00     0.032 C 
BRANCH   9  10
HETATM   10  C6  UNL     1       0.276  51.201 -25.645  1.00  0.00     0.010 C 
BRANCH  10  11
HETATM   11  C5  UNL     1      -0.398  51.391 -24.283  1.00  0.00     0.001 C 
BRANCH  11  12
HETATM   12  C4  UNL     1       0.272  52.468 -23.420  1.00  0.00     0.000 C 
BRANCH  12  13
HETATM   13  C3  UNL     1       0.661  51.974 -22.024  1.00  0.00    -0.000 C 
BRANCH  13  14
HETATM   14  C2  UNL     1       0.604  53.072 -20.956  1.00  0.00    -0.005 C 
HETATM   15  C1  UNL     1       1.529  54.245 -21.241  1.00  0.00     0.005 C 
ENDBRANCH  13  14
ENDBRANCH  12  13
ENDBRANCH  11  12
ENDBRANCH  10  11
ENDBRANCH   9  10
BRANCH   9  16
HETATM   16  C30 UNL     1       0.710  52.533 -27.790  1.00  0.00     0.172 C 
BRANCH  16  17
HETATM   17  O7  UNL     1       0.085  53.195 -28.890  1.00  0.00    -0.400 OA
HETATM   18  H50 UNL     1      -0.583  52.587 -29.251  1.00  0.00     0.209 HD
ENDBRANCH  16  17
ENDBRANCH   9  16
ENDBRANCH   7   9
ENDBRANCH   5   6
BRANCH   5  19
HETATM   19  O1  UNL     1      -3.370  50.429 -29.289  1.00  0.00    -0.390 OA
HETATM   20  H20 UNL     1      -3.315  51.377 -29.487  1.00  0.00     0.210 HD
ENDBRANCH   5  19
ENDBRANCH   3   5
ENDBRANCH   1   3
BRANCH   1  21
HETATM   21  O3  UNL     1      -5.553  48.301 -28.715  1.00  0.00    -0.312 OA
BRANCH  21  22
HETATM   22  C15 UNL     1      -5.981  47.055 -29.289  1.00  0.00     0.170 C 
HETATM   23  C16 UNL     1      -5.349  46.936 -30.678  1.00  0.00     0.036 C 
HETATM   24  C17 UNL     1      -6.240  46.156 -31.630  1.00  0.00     0.007 C 
HETATM   25  C18 UNL     1      -7.594  46.859 -31.879  1.00  0.00    -0.007 C 
HETATM   26  C19 UNL     1      -7.509  47.726 -33.143  1.00  0.00     0.011 C 
HETATM   27  C20 UNL     1      -8.155  47.627 -30.611  1.00  0.00    -0.004 C 
HETATM   28  C21 UNL     1      -7.924  49.157 -30.676  1.00  0.00     0.019 C 
HETATM   29  C22 UNL     1      -9.684  47.358 -30.547  1.00  0.00     0.023 C 
HETATM   30  C29 UNL     1      -7.489  47.078 -29.353  1.00  0.00     0.127 A 
HETATM   31  C23 UNL     1     -10.381  47.838 -29.257  1.00  0.00     0.057 C 
HETATM   32  C24 UNL     1     -11.610  46.982 -28.930  1.00  0.00     0.015 C 
HETATM   33  C27 UNL     1      -9.561  47.773 -27.954  1.00  0.00     0.195 C 
HETATM   34  C25 UNL     1     -12.866  47.375 -29.686  1.00  0.00     0.012 C 
HETATM   35  C26 UNL     1     -11.726  47.153 -27.430  1.00  0.00     0.176 C 
HETATM   36  O4  UNL     1     -10.374  47.135 -26.963  1.00  0.00    -0.352 OA
HETATM   37  C28 UNL     1      -8.240  47.086 -28.042  1.00  0.00     0.223 A 
HETATM   38  O6  UNL     1      -8.132  45.893 -28.827  1.00  0.00    -0.360 OA
BRANCH  33  39
HETATM   39  O5  UNL     1      -9.355  49.110 -27.512  1.00  0.00    -0.363 OA
HETATM   40  H46 UNL     1      -8.865  49.033 -26.673  1.00  0.00     0.213 HD
ENDBRANCH  33  39
ENDBRANCH  21  22
ENDBRANCH   1  21
TORSDOF 15
ENDMDL
