MODEL 1
REMARK minimizedAffinity -9.6169939
REMARK  9 active torsions:
REMARK  status: ('A' for Active; 'I' for Inactive)
REMARK    1  A    between atoms: C2_2  and  C4_4 
REMARK    2  A    between atoms: C4_4  and  O1_5 
REMARK    3  A    between atoms: C4_4  and  C5_7 
REMARK    4  A    between atoms: O1_5  and  O2_6 
REMARK    5  A    between atoms: C5_7  and  O3_8 
REMARK    6  A    between atoms: C5_7  and  C6_9 
REMARK    7  A    between atoms: C6_9  and  C7_10 
REMARK    8  A    between atoms: C7_10  and  C9_12 
REMARK    9  A    between atoms: C20_23  and  O4_24 
ROOT
HETATM    1  C9  UNL     1      -3.494  50.637 -25.828  1.00  0.00    -0.002 C 
HETATM    2  C10 UNL     1      -4.180  49.241 -25.932  1.00  0.00     0.006 C 
HETATM    3  C11 UNL     1      -3.715  48.395 -24.731  1.00  0.00     0.011 C 
HETATM    4  C12 UNL     1      -3.061  49.401 -23.774  1.00  0.00    -0.032 C 
HETATM    5  C13 UNL     1      -4.219  50.087 -22.967  1.00  0.00     0.016 C 
HETATM    6  C14 UNL     1      -2.021  48.807 -22.764  1.00  0.00     0.004 C 
HETATM    7  C15 UNL     1      -2.637  47.671 -21.907  1.00  0.00     0.006 C 
HETATM    8  C16 UNL     1      -2.366  47.682 -20.407  1.00  0.00     0.006 C 
HETATM    9  C17 UNL     1      -2.541  49.081 -19.807  1.00  0.00     0.001 C 
HETATM   10  C18 UNL     1      -2.241  49.142 -18.288  1.00  0.00     0.015 C 
HETATM   11  C19 UNL     1      -2.908  48.031 -17.471  1.00  0.00     0.013 C 
HETATM   12  C20 UNL     1      -2.656  50.520 -17.717  1.00  0.00     0.122 C 
HETATM   13  C21 UNL     1      -2.763  51.620 -18.774  1.00  0.00     0.033 C 
HETATM   14  C22 UNL     1      -1.696  51.503 -19.860  1.00  0.00     0.013 C 
HETATM   15  C23 UNL     1      -1.644  50.118 -20.498  1.00  0.00    -0.027 A 
HETATM   16  C24 UNL     1      -0.283  49.646 -20.967  1.00  0.00     0.021 A 
HETATM   17  C25 UNL     1      -1.340  49.971 -22.001  1.00  0.00    -0.027 A 
HETATM   18  C26 UNL     1      -0.874  51.143 -22.883  1.00  0.00     0.011 C 
HETATM   19  C27 UNL     1      -1.843  51.577 -23.990  1.00  0.00     0.011 C 
HETATM   20  C28 UNL     1      -2.348  50.371 -24.798  1.00  0.00    -0.032 C 
HETATM   21  C29 UNL     1      -1.144  49.725 -25.552  1.00  0.00     0.016 C 
ENDROOT
BRANCH   1  22
HETATM   22  C7  UNL     1      -3.166  51.231 -27.236  1.00  0.00    -0.011 C 
HETATM   23  C8  UNL     1      -3.445  50.234 -28.364  1.00  0.00     0.010 C 
BRANCH  22  24
HETATM   24  C6  UNL     1      -1.686  51.699 -27.287  1.00  0.00     0.039 C 
BRANCH  24  25
HETATM   25  C5  UNL     1      -1.419  53.218 -27.194  1.00  0.00     0.154 C 
BRANCH  25  26
HETATM   26  C4  UNL     1       0.092  53.577 -27.054  1.00  0.00     0.216 C 
BRANCH  26  27
HETATM   27  C2  UNL     1       1.086  52.427 -26.872  1.00  0.00    -0.059 C 
HETATM   28  C1  UNL     1       1.545  51.977 -25.691  1.00  0.00     0.016 C 
HETATM   29  C3  UNL     1       1.522  51.754 -28.147  1.00  0.00     0.045 C 
ENDBRANCH  26  27
BRANCH  26  30
HETATM   30  O1  UNL     1       0.240  54.486 -25.946  1.00  0.00    -0.231 OA
BRANCH  30  31
HETATM   31  O2  UNL     1       0.205  55.839 -26.494  1.00  0.00    -0.250 OA
HETATM   32  H7  UNL     1       1.047  56.130 -26.096  1.00  0.00     0.253 HD
ENDBRANCH  30  31
ENDBRANCH  26  30
ENDBRANCH  25  26
BRANCH  25  33
HETATM   33  O3  UNL     1      -1.987  53.815 -28.376  1.00  0.00    -0.393 OA
HETATM   34  H9  UNL     1      -2.900  53.496 -28.461  1.00  0.00     0.210 HD
ENDBRANCH  25  33
ENDBRANCH  24  25
ENDBRANCH  22  24
ENDBRANCH   1  22
BRANCH  12  35
HETATM   35  O4  UNL     1      -1.701  50.896 -16.723  1.00  0.00    -0.395 OA
HETATM   36  H35 UNL     1      -2.002  51.731 -16.326  1.00  0.00     0.210 HD
ENDBRANCH  12  35
TORSDOF 9
ENDMDL
