MODEL 1
REMARK minimizedAffinity -10.2896032
REMARK  12 active torsions:
REMARK  status: ('A' for Active; 'I' for Inactive)
REMARK    1  A    between atoms: C2_2  and  C3_3 
REMARK    2  A    between atoms: C2_2  and  C9_11 
REMARK    3  A    between atoms: C4_4  and  C5_5 
REMARK    4  A    between atoms: C5_5  and  C6_6 
REMARK    5  A    between atoms: C6_6  and  O1_8 
REMARK    6  A    between atoms: C6_6  and  C8_9 
REMARK    7  A    between atoms: C8_9  and  O2_10 
REMARK    8  A    between atoms: C10_12  and  O3_13 
REMARK    9  A    between atoms: C11_14  and  O4_15 
REMARK   10  A    between atoms: C22_26  and  O5_27 
REMARK   11  A    between atoms: C25_30  and  O6_31 
REMARK   12  A    between atoms: C27_33  and  O7_34 
ROOT
HETATM    1  C9  UNL     1       1.443   7.084   9.794  1.00  0.00     0.033 C 
HETATM    2  C10 UNL     1       1.926   5.642  10.166  1.00  0.00     0.152 C 
HETATM    3  C11 UNL     1       1.077   5.189  11.382  1.00  0.00     0.155 C 
HETATM    4  C12 UNL     1      -0.007   6.256  11.489  1.00  0.00     0.060 C 
HETATM    5  C13 UNL     1       0.746   7.572  11.111  1.00  0.00    -0.028 C 
HETATM    6  C14 UNL     1       1.810   8.050  12.130  1.00  0.00     0.016 C 
HETATM    7  C15 UNL     1      -0.324   8.667  10.937  1.00  0.00     0.011 C 
HETATM    8  C16 UNL     1      -1.229   8.807  12.175  1.00  0.00     0.009 C 
HETATM    9  C17 UNL     1      -1.909   7.474  12.571  1.00  0.00     0.029 C 
HETATM   10  C18 UNL     1      -2.980   7.618  13.723  1.00  0.00    -0.031 C 
HETATM   11  C19 UNL     1      -2.372   8.290  14.980  1.00  0.00     0.016 C 
HETATM   12  C20 UNL     1      -4.151   8.547  13.236  1.00  0.00     0.012 C 
HETATM   13  C21 UNL     1      -5.568   8.033  13.532  1.00  0.00     0.032 C 
HETATM   14  C22 UNL     1      -5.703   7.346  14.886  1.00  0.00     0.118 C 
HETATM   15  C23 UNL     1      -4.662   6.241  15.108  1.00  0.00     0.039 C 
HETATM   16  C24 UNL     1      -3.578   6.204  14.014  1.00  0.00     0.025 C 
HETATM   17  C25 UNL     1      -2.532   5.102  14.264  1.00  0.00     0.126 C 
HETATM   18  C26 UNL     1      -1.565   4.997  13.079  1.00  0.00     0.071 C 
HETATM   19  C27 UNL     1      -0.853   6.333  12.781  1.00  0.00     0.071 C 
ENDROOT
BRANCH   1  20
HETATM   20  C2  UNL     1       2.526   7.966   9.115  1.00  0.00     0.011 C 
HETATM   21  C1  UNL     1       2.549   7.842   7.587  1.00  0.00     0.015 C 
BRANCH  20  22
HETATM   22  C3  UNL     1       3.895   7.672   9.717  1.00  0.00    -0.026 C 
HETATM   23  C4  UNL     1       4.750   8.559  10.251  1.00  0.00    -0.027 C 
BRANCH  23  24
HETATM   24  C5  UNL     1       6.093   8.186  10.831  1.00  0.00     0.066 C 
BRANCH  24  25
HETATM   25  C6  UNL     1       6.045   7.039  11.871  1.00  0.00     0.078 C 
HETATM   26  C7  UNL     1       6.456   5.688  11.280  1.00  0.00     0.048 C 
BRANCH  25  27
HETATM   27  O1  UNL     1       4.707   6.929  12.397  1.00  0.00    -0.388 OA
HETATM   28  H12 UNL     1       4.143   6.595  11.677  1.00  0.00     0.210 HD
ENDBRANCH  25  27
BRANCH  25  29
HETATM   29  C8  UNL     1       6.956   7.372  13.072  1.00  0.00     0.201 C 
BRANCH  29  30
HETATM   30  O2  UNL     1       6.502   6.695  14.243  1.00  0.00    -0.398 OA
HETATM   31  H15 UNL     1       6.320   5.781  13.944  1.00  0.00     0.209 HD
ENDBRANCH  29  30
ENDBRANCH  25  29
ENDBRANCH  24  25
ENDBRANCH  23  24
ENDBRANCH  20  22
ENDBRANCH   1  20
BRANCH   2  32
HETATM   32  O3  UNL     1       3.311   5.607  10.510  1.00  0.00    -0.393 OA
HETATM   33  H18 UNL     1       3.527   4.697  10.776  1.00  0.00     0.210 HD
ENDBRANCH   2  32
BRANCH   3  34
HETATM   34  O4  UNL     1       0.504   3.907  11.129  1.00  0.00    -0.392 OA
HETATM   35  H20 UNL     1       1.229   3.259  11.147  1.00  0.00     0.210 HD
ENDBRANCH   3  34
BRANCH  19  36
HETATM   36  O7  UNL     1       0.021   6.623  13.869  1.00  0.00    -0.389 OA
HETATM   37  H46 UNL     1      -0.369   6.225  14.677  1.00  0.00     0.210 HD
ENDBRANCH  19  36
BRANCH  17  38
HETATM   38  O6  UNL     1      -1.768   5.331  15.445  1.00  0.00    -0.395 OA
HETATM   39  H43 UNL     1      -2.376   5.290  16.207  1.00  0.00     0.210 HD
ENDBRANCH  17  38
BRANCH  14  40
HETATM   40  O5  UNL     1      -5.587   8.307  15.931  1.00  0.00    -0.396 OA
HETATM   41  H38 UNL     1      -6.238   9.009  15.765  1.00  0.00     0.210 HD
ENDBRANCH  14  40
TORSDOF 12
ENDMDL
