MODEL 1
REMARK minimizedAffinity -8.55953884
REMARK  10 active torsions:
REMARK  status: ('A' for Active; 'I' for Inactive)
REMARK    1  A    between atoms: C2_2  and  C3_4 
REMARK    2  A    between atoms: C10_12  and  O3_13 
REMARK    3  A    between atoms: C13_16  and  C14_17 
REMARK    4  A    between atoms: C14_17  and  C16_19 
REMARK    5  A    between atoms: C16_19  and  C17_20 
REMARK    6  A    between atoms: C17_20  and  C18_21 
REMARK    7  A    between atoms: C26_29  and  C27_30 
REMARK    8  A    between atoms: C27_30  and  C28_31 
REMARK    9  A    between atoms: C28_31  and  C29_32 
REMARK   10  A    between atoms: C29_32  and  O4_33 
ROOT
HETATM    1  C3  UNL     1      -4.127  50.169 -23.990  1.00  0.00     0.151 A 
HETATM    2  O2  UNL     1      -5.183  51.143 -24.216  1.00  0.00    -0.360 OA
HETATM    3  C4  UNL     1      -4.899  50.820 -22.866  1.00  0.00     0.166 A 
HETATM    4  C5  UNL     1      -4.257  51.932 -22.110  1.00  0.00     0.041 C 
HETATM    5  C6  UNL     1      -2.807  51.616 -21.700  1.00  0.00     0.006 C 
HETATM    6  C7  UNL     1      -1.915  50.997 -22.883  1.00  0.00    -0.030 C 
HETATM    7  C8  UNL     1      -0.725  51.942 -23.216  1.00  0.00     0.016 C 
HETATM    8  C9  UNL     1      -1.252  49.656 -22.436  1.00  0.00     0.042 C 
HETATM    9  C10 UNL     1      -0.613  49.582 -21.021  1.00  0.00     0.128 C 
HETATM   10  C11 UNL     1      -1.215  50.543 -19.954  1.00  0.00    -0.006 C 
HETATM   11  C12 UNL     1      -0.344  51.841 -19.857  1.00  0.00     0.019 C 
HETATM   12  C13 UNL     1      -1.365  50.012 -18.477  1.00  0.00     0.001 C 
HETATM   13  C22 UNL     1      -2.486  50.935 -17.904  1.00  0.00     0.007 C 
HETATM   14  C23 UNL     1      -3.174  51.627 -19.097  1.00  0.00     0.011 C 
HETATM   15  C24 UNL     1      -2.717  50.830 -20.333  1.00  0.00    -0.029 C 
HETATM   16  C25 UNL     1      -3.625  49.557 -20.349  1.00  0.00     0.016 C 
HETATM   17  C26 UNL     1      -2.721  50.722 -24.257  1.00  0.00     0.039 C 
ENDROOT
BRANCH  12  18
HETATM   18  C14 UNL     1      -0.126  49.939 -17.526  1.00  0.00    -0.013 C 
HETATM   19  C15 UNL     1      -0.180  48.704 -16.617  1.00  0.00     0.010 C 
BRANCH  18  20
HETATM   20  C16 UNL     1      -0.034  51.240 -16.681  1.00  0.00     0.008 C 
BRANCH  20  21
HETATM   21  C17 UNL     1       0.647  51.132 -15.307  1.00  0.00     0.028 C 
BRANCH  21  22
HETATM   22  C18 UNL     1       2.134  51.357 -15.343  1.00  0.00    -0.025 C 
HETATM   23  C19 UNL     1       2.821  52.179 -16.161  1.00  0.00    -0.091 C 
HETATM   24  C20 UNL     1       2.211  52.992 -17.273  1.00  0.00     0.042 C 
HETATM   25  C21 UNL     1       4.314  52.331 -16.026  1.00  0.00     0.042 C 
ENDBRANCH  21  22
ENDBRANCH  20  21
ENDBRANCH  18  20
ENDBRANCH  12  18
BRANCH   9  26
HETATM   26  O3  UNL     1      -0.736  48.223 -20.593  1.00  0.00    -0.395 OA
HETATM   27  H14 UNL     1      -0.207  47.671 -21.200  1.00  0.00     0.210 HD
ENDBRANCH   9  26
BRANCH  17  28
HETATM   28  C27 UNL     1      -2.761  51.921 -25.258  1.00  0.00     0.011 C 
BRANCH  28  29
HETATM   29  C28 UNL     1      -2.251  51.563 -26.663  1.00  0.00     0.027 C 
BRANCH  29  30
HETATM   30  C29 UNL     1      -1.297  52.622 -27.211  1.00  0.00     0.164 C 
BRANCH  30  31
HETATM   31  O4  UNL     1      -1.996  53.541 -28.042  1.00  0.00    -0.401 OA
HETATM   32  H48 UNL     1      -1.357  54.231 -28.295  1.00  0.00     0.209 HD
ENDBRANCH  30  31
ENDBRANCH  29  30
ENDBRANCH  28  29
ENDBRANCH  17  28
BRANCH   1  33
HETATM   33  C2  UNL     1      -4.521  48.821 -24.517  1.00  0.00     0.160 C 
HETATM   34  C1  UNL     1      -4.022  48.449 -25.884  1.00  0.00     0.094 C 
HETATM   35  O1  UNL     1      -5.237  48.065 -23.861  1.00  0.00    -0.295 OA
ENDBRANCH   1  33
TORSDOF 10
ENDMDL
