MODEL 1
REMARK minimizedAffinity -6.98253489
REMARK CNNscore 0.695694447
REMARK CNNaffinity 6.77132845
REMARK  5 active torsions:
REMARK  status: ('A' for Active; 'I' for Inactive)
REMARK    1  A    between atoms: C2_2  and  C4_4 
REMARK    2  A    between atoms: C4_4  and  C6_6 
REMARK    3  A    between atoms: C7_7  and  C8_8 
REMARK    4  A    between atoms: C8_8  and  C10_10 
REMARK    5  A    between atoms: C19_20  and  O2_21 
ROOT
HETATM    1  C10 UNL     1      -2.364  12.224  18.847  1.00  0.00     0.001 C 
HETATM    2  C11 UNL     1      -0.820  12.104  19.038  1.00  0.00     0.006 C 
HETATM    3  C12 UNL     1      -0.369  10.903  18.214  1.00  0.00     0.006 C 
HETATM    4  C13 UNL     1      -1.289  11.025  17.012  1.00  0.00     0.001 C 
HETATM    5  C14 UNL     1      -1.192   9.986  15.894  1.00  0.00     0.033 C 
HETATM    6  C15 UNL     1      -0.741   8.567  16.253  1.00  0.00     0.089 C 
HETATM    7  C16 UNL     1      -0.871   7.727  14.982  1.00  0.00     0.162 C 
HETATM    8  O1  UNL     1      -0.058   6.831  14.735  1.00  0.00    -0.295 OA
HETATM    9  C17 UNL     1      -2.161   8.160  14.117  1.00  0.00     0.131 C 
HETATM   10  C18 UNL     1      -2.512   7.246  12.949  1.00  0.00     0.078 C 
HETATM   11  C19 UNL     1      -3.598   6.278  13.405  1.00  0.00     0.121 C 
HETATM   12  C20 UNL     1      -4.893   6.998  13.823  1.00  0.00     0.036 C 
HETATM   13  C21 UNL     1      -4.697   8.466  14.269  1.00  0.00    -0.006 C 
HETATM   14  C22 UNL     1      -5.868   8.906  15.143  1.00  0.00     0.010 C 
HETATM   15  C23 UNL     1      -3.368   8.597  15.018  1.00  0.00     0.067 C 
HETATM   16  C24 UNL     1      -2.511   9.946  15.054  1.00  0.00     0.074 C 
HETATM   17  C25 UNL     1      -3.227  11.292  15.054  1.00  0.00     0.040 C 
HETATM   18  C26 UNL     1      -3.606  11.783  16.473  1.00  0.00     0.013 C 
HETATM   19  C27 UNL     1      -2.689  11.271  17.616  1.00  0.00    -0.036 C 
HETATM   20  C28 UNL     1      -3.339  10.004  18.232  1.00  0.00     0.016 C 
HETATM   21  O3  UNL     1      -2.081   9.583  13.672  1.00  0.00    -0.360 OA
ENDROOT
BRANCH   1  22
HETATM   22  C8  UNL     1      -2.824  13.709  18.790  1.00  0.00     0.008 C 
HETATM   23  C9  UNL     1      -1.675  14.679  19.114  1.00  0.00     0.014 C 
BRANCH  22  24
HETATM   24  C7  UNL     1      -3.986  14.088  19.690  1.00  0.00    -0.026 C 
HETATM   25  C6  UNL     1      -4.967  13.288  20.144  1.00  0.00    -0.026 C 
BRANCH  25  26
HETATM   26  C4  UNL     1      -6.131  13.699  21.031  1.00  0.00     0.007 C 
HETATM   27  C5  UNL     1      -6.044  13.067  22.431  1.00  0.00     0.014 C 
BRANCH  26  28
HETATM   28  C2  UNL     1      -7.496  13.416  20.338  1.00  0.00    -0.015 C 
HETATM   29  C1  UNL     1      -7.850  14.481  19.289  1.00  0.00     0.010 C 
HETATM   30  C3  UNL     1      -8.653  13.319  21.342  1.00  0.00     0.010 C 
ENDBRANCH  26  28
ENDBRANCH  25  26
ENDBRANCH  22  24
ENDBRANCH   1  22
BRANCH  11  31
HETATM   31  O2  UNL     1      -3.117   5.554  14.535  1.00  0.00    -0.395 OA
HETATM   32  H30 UNL     1      -2.843   4.663  14.235  1.00  0.00     0.210 HD
ENDBRANCH  11  31
TORSDOF 5
ENDMDL
