MODEL 1
REMARK minimizedAffinity -8.05221748
REMARK CNNscore 0.322205156
REMARK CNNaffinity 6.74634695
REMARK  19 active torsions:
REMARK  status: ('A' for Active; 'I' for Inactive)
REMARK    1  A    between atoms: O1_2  and  C2_3 
REMARK    2  A    between atoms: C2_3  and  C3_4 
REMARK    3  A    between atoms: C2_3  and  C28_36 
REMARK    4  A    between atoms: C3_4  and  C4_5 
REMARK    5  A    between atoms: C4_5  and  C6_7 
REMARK    6  A    between atoms: C6_7  and  O2_8 
REMARK    7  A    between atoms: C6_7  and  C7_9 
REMARK    8  A    between atoms: C8_10  and  C9_11 
REMARK    9  A    between atoms: C10_12  and  C11_13 
REMARK   10  A    between atoms: C11_13  and  N1_14 
REMARK       I    between atoms: N1_14  and  C12_15 
REMARK   11  A    between atoms: C12_15  and  C13_17 
REMARK   12  A    between atoms: C13_17  and  C16_20 
REMARK   13  A    between atoms: C16_20  and  O4_21 
REMARK   14  A    between atoms: C16_20  and  C17_22 
REMARK   15  A    between atoms: C19_24  and  C20_25 
REMARK   16  A    between atoms: C21_26  and  C22_27 
REMARK   17  A    between atoms: C23_28  and  C24_29 
REMARK   18  A    between atoms: C26_31  and  N2_33 
REMARK   19  A    between atoms: C28_36  and  O7_37 
ROOT
HETATM    1  C9  UNL     1      -8.797   6.298  13.109  1.00  0.00    -0.003 C 
HETATM    2  C10 UNL     1      -8.197   5.144  13.449  1.00  0.00    -0.007 C 
ENDROOT
BRANCH   1   3
HETATM    3  C8  UNL     1      -9.924   6.829  13.842  1.00  0.00    -0.002 C 
HETATM    4  C7  UNL     1     -11.111   7.101  13.273  1.00  0.00     0.005 C 
BRANCH   4   5
HETATM    5  C6  UNL     1     -12.337   7.619  13.987  1.00  0.00     0.144 C 
BRANCH   5   6
HETATM    6  C4  UNL     1     -13.591   6.765  13.686  1.00  0.00     0.016 C 
HETATM    7  C5  UNL     1     -13.606   5.403  14.384  1.00  0.00     0.013 C 
BRANCH   6   8
HETATM    8  C3  UNL     1     -14.924   7.542  13.840  1.00  0.00     0.042 C 
BRANCH   8   9
HETATM    9  C2  UNL     1     -15.164   8.901  13.126  1.00  0.00     0.159 C 
BRANCH   9  10
HETATM   10  O1  UNL     1     -15.445   9.937  14.060  1.00  0.00    -0.388 OA
HETATM   11  C1  UNL     1     -14.499  10.018  15.124  1.00  0.00     0.202 C 
ENDBRANCH   9  10
BRANCH   9  12
HETATM   12  C28 UNL     1     -16.295   8.795  12.049  1.00  0.00     0.133 C 
HETATM   13  C29 UNL     1     -16.653  10.099  11.257  1.00  0.00     0.114 C 
HETATM   14  C30 UNL     1     -17.016  11.363  12.027  1.00  0.00     0.023 C 
HETATM   15  C31 UNL     1     -17.917   9.677  10.532  1.00  0.00     0.227 C 
HETATM   16  O8  UNL     1     -18.330  10.140   9.483  1.00  0.00    -0.273 OA
HETATM   17  N3  UNL     1     -18.522   8.692  11.297  1.00  0.00    -0.332 N 
HETATM   18  C32 UNL     1     -19.645   7.935  10.790  1.00  0.00     0.154 C 
HETATM   19  C33 UNL     1     -17.680   8.259  12.479  1.00  0.00     0.183 A 
HETATM   20  C34 UNL     1     -17.781   6.751  12.848  1.00  0.00     0.294 A 
HETATM   21  C35 UNL     1     -18.470   8.413  13.832  1.00  0.00     0.169 A 
HETATM   22  O9  UNL     1     -17.497   5.687  12.342  1.00  0.00    -0.262 OA
HETATM   23  O10 UNL     1     -18.416   6.967  14.026  1.00  0.00    -0.311 OA
HETATM   24  C36 UNL     1     -18.035   9.116  15.100  1.00  0.00     0.043 C 
BRANCH  12  25
HETATM   25  O7  UNL     1     -15.733   7.894  11.039  1.00  0.00    -0.383 OA
HETATM   26  H42 UNL     1     -16.441   7.574  10.450  1.00  0.00     0.210 HD
ENDBRANCH  12  25
ENDBRANCH   9  12
ENDBRANCH   8   9
ENDBRANCH   6   8
ENDBRANCH   5   6
BRANCH   5  27
HETATM   27  O2  UNL     1     -12.092   7.696  15.385  1.00  0.00    -0.391 OA
HETATM   28  H12 UNL     1     -11.381   8.352  15.504  1.00  0.00     0.210 HD
ENDBRANCH   5  27
ENDBRANCH   4   5
ENDBRANCH   1   3
BRANCH   2  29
HETATM   29  C11 UNL     1      -7.045   4.465  12.773  1.00  0.00     0.149 C 
BRANCH  29  30
HETATM   30  N1  UNL     1      -5.811   5.192  12.956  1.00  0.00    -0.357 N 
HETATM   31  C12 UNL     1      -4.612   4.509  12.993  1.00  0.00     0.228 C 
HETATM   32  O3  UNL     1      -4.546   3.311  12.718  1.00  0.00    -0.273 OA
HETATM   33  H19 UNL     1      -5.877   6.078  13.434  1.00  0.00     0.162 HD
BRANCH  31  34
HETATM   34  C13 UNL     1      -3.355   5.350  13.278  1.00  0.00     0.063 C 
HETATM   35  C14 UNL     1      -2.704   4.983  14.626  1.00  0.00     0.028 C 
HETATM   36  C15 UNL     1      -3.832   6.818  13.340  1.00  0.00     0.028 C 
BRANCH  34  37
HETATM   37  C16 UNL     1      -2.294   5.212  12.128  1.00  0.00     0.164 C 
BRANCH  37  38
HETATM   38  O4  UNL     1      -2.753   4.379  11.061  1.00  0.00    -0.390 OA
HETATM   39  H27 UNL     1      -3.061   3.542  11.464  1.00  0.00     0.210 HD
ENDBRANCH  37  38
BRANCH  37  40
HETATM   40  C17 UNL     1      -0.880   4.780  12.513  1.00  0.00    -0.054 C 
HETATM   41  C18 UNL     1      -0.422   3.428  12.019  1.00  0.00     0.046 C 
HETATM   42  C19 UNL     1       0.001   5.519  13.226  1.00  0.00     0.005 C 
BRANCH  42  43
HETATM   43  C20 UNL     1      -0.190   6.841  13.788  1.00  0.00     0.000 C 
HETATM   44  C21 UNL     1       0.099   8.020  13.210  1.00  0.00     0.000 C 
BRANCH  44  45
HETATM   45  C22 UNL     1       0.662   8.246  11.894  1.00  0.00     0.001 C 
HETATM   46  C23 UNL     1       0.123   7.732  10.774  1.00  0.00     0.009 C 
BRANCH  46  47
HETATM   47  C24 UNL     1       0.635   7.906   9.406  1.00  0.00    -0.034 C 
HETATM   48  C25 UNL     1      -0.320   8.559   8.423  1.00  0.00     0.050 C 
HETATM   49  C26 UNL     1       1.876   7.474   9.074  1.00  0.00     0.082 C 
HETATM   50  C27 UNL     1       2.957   6.829   9.876  1.00  0.00     0.075 C 
BRANCH  49  51
HETATM   51  N2  UNL     1       2.313   7.691   7.710  1.00  0.00    -0.120 N 
HETATM   52  O5  UNL     1       2.928   8.739   7.476  1.00  0.00    -0.532 OA
HETATM   53  O6  UNL     1       2.053   6.798   6.895  1.00  0.00    -0.532 OA
ENDBRANCH  49  51
ENDBRANCH  46  47
ENDBRANCH  44  45
ENDBRANCH  42  43
ENDBRANCH  37  40
ENDBRANCH  34  37
ENDBRANCH  31  34
ENDBRANCH  29  30
ENDBRANCH   2  29
TORSDOF 19
ENDMDL
