MODEL 1
REMARK minimizedAffinity -9.627141
REMARK CNNscore 0.757401109
REMARK CNNaffinity 7.32561684
REMARK  10 active torsions:
REMARK  status: ('A' for Active; 'I' for Inactive)
REMARK    1  A    between atoms: O1_2  and  C2_3 
REMARK    2  A    between atoms: C2_3  and  C3_4 
REMARK    3  A    between atoms: C2_3  and  C26_35 
REMARK    4  A    between atoms: C3_4  and  C4_5 
REMARK    5  A    between atoms: C4_5  and  C5_6 
REMARK    6  A    between atoms: C5_6  and  C7_8 
REMARK    7  A    between atoms: C13_17  and  C14_18 
REMARK    8  A    between atoms: C14_18  and  O5_19 
REMARK    9  A    between atoms: C17_24  and  O8_25 
REMARK   10  A    between atoms: C30_39  and  O10_40 
ROOT
HETATM    1  C7  UNL     1      -2.241   4.473  11.808  1.00  0.00     0.135 C 
HETATM    2  O2  UNL     1      -2.387   5.244  13.004  1.00  0.00    -0.348 OA
HETATM    3  C8  UNL     1      -1.335   6.193  13.284  1.00  0.00     0.177 C 
HETATM    4  C9  UNL     1       0.006   5.435  13.354  1.00  0.00     0.102 C 
HETATM    5  C10 UNL     1       0.234   4.501  12.160  1.00  0.00     0.143 C 
HETATM    6  O3  UNL     1       0.442   5.274  10.960  1.00  0.00    -0.315 OA
HETATM    7  C11 UNL     1       1.706   5.401  10.483  1.00  0.00     0.261 C 
HETATM    8  O4  UNL     1       2.714   4.914  10.976  1.00  0.00    -0.265 OA
HETATM    9  C12 UNL     1       1.708   6.262   9.250  1.00  0.00     0.145 C 
HETATM   10  C13 UNL     1       1.983   7.723   9.592  1.00  0.00     0.164 C 
HETATM   11  O6  UNL     1       0.984   8.237  10.505  1.00  0.00    -0.313 OA
HETATM   12  C15 UNL     1      -0.224   8.588   9.983  1.00  0.00     0.264 C 
HETATM   13  O7  UNL     1      -0.505   8.531   8.790  1.00  0.00    -0.265 OA
HETATM   14  C16 UNL     1      -1.137   9.179  11.032  1.00  0.00     0.179 C 
HETATM   15  C17 UNL     1      -1.076   8.465  12.398  1.00  0.00     0.177 C 
HETATM   16  O9  UNL     1      -1.313   7.092  12.172  1.00  0.00    -0.318 OA
HETATM   17  C18 UNL     1      -2.180   9.044  13.325  1.00  0.00     0.045 C 
HETATM   18  C19 UNL     1      -1.777  10.362  13.997  1.00  0.00     0.015 C 
HETATM   19  C20 UNL     1      -2.704   8.031  14.361  1.00  0.00     0.024 C 
HETATM   20  C21 UNL     1      -1.748   6.862  14.664  1.00  0.00     0.010 C 
HETATM   21  C22 UNL     1      -2.519   5.854  15.567  1.00  0.00     0.020 C 
HETATM   22  C23 UNL     1      -0.576   7.342  15.549  1.00  0.00     0.020 C 
HETATM   23  C24 UNL     1      -0.988   3.591  11.945  1.00  0.00     0.041 C 
HETATM   24  C25 UNL     1      -0.777   2.668  10.744  1.00  0.00     0.015 C 
ENDROOT
BRANCH   1  25
HETATM   25  C5  UNL     1      -3.577   3.708  11.578  1.00  0.00     0.011 C 
HETATM   26  C6  UNL     1      -3.447   2.207  11.874  1.00  0.00     0.012 C 
BRANCH  25  27
HETATM   27  C4  UNL     1      -4.691   4.347  12.449  1.00  0.00     0.009 C 
BRANCH  27  28
HETATM   28  C3  UNL     1      -6.122   3.840  12.202  1.00  0.00     0.037 C 
BRANCH  28  29
HETATM   29  C2  UNL     1      -6.926   3.589  13.493  1.00  0.00     0.153 C 
BRANCH  29  30
HETATM   30  O1  UNL     1      -7.979   2.663  13.192  1.00  0.00    -0.386 OA
HETATM   31  C1  UNL     1      -7.537   1.559  12.415  1.00  0.00     0.202 C 
ENDBRANCH  29  30
BRANCH  29  32
HETATM   32  C26 UNL     1      -7.555   4.851  14.061  1.00  0.00    -0.027 A 
HETATM   33  C27 UNL     1      -8.579   5.544  13.392  1.00  0.00     0.010 A 
HETATM   34  C28 UNL     1      -9.133   6.707  13.936  1.00  0.00     0.003 A 
HETATM   35  C29 UNL     1      -8.681   7.187  15.163  1.00  0.00     0.036 A 
HETATM   36  C30 UNL     1      -7.689   6.494  15.845  1.00  0.00     0.066 A 
HETATM   37  C31 UNL     1      -7.124   5.337  15.309  1.00  0.00     0.046 A 
BRANCH  36  38
HETATM   38  O10 UNL     1      -7.287   6.985  17.053  1.00  0.00    -0.361 OA
HETATM   39  H45 UNL     1      -6.673   6.349  17.454  1.00  0.00     0.217 HD
ENDBRANCH  36  38
ENDBRANCH  29  32
ENDBRANCH  28  29
ENDBRANCH  27  28
ENDBRANCH  25  27
ENDBRANCH   1  25
BRANCH  15  40
HETATM   40  O8  UNL     1       0.198   8.674  12.982  1.00  0.00    -0.364 OA
HETATM   41  H25 UNL     1       0.870   8.598  12.276  1.00  0.00     0.213 HD
ENDBRANCH  15  40
BRANCH  10  42
HETATM   42  C14 UNL     1       3.354   7.926  10.257  1.00  0.00     0.197 C 
BRANCH  42  43
HETATM   43  O5  UNL     1       4.335   7.096   9.628  1.00  0.00    -0.398 OA
HETATM   44  H22 UNL     1       4.143   6.172   9.870  1.00  0.00     0.209 HD
ENDBRANCH  42  43
ENDBRANCH  10  42
TORSDOF 10
ENDMDL
