MODEL 1
REMARK minimizedAffinity -7.47808504
REMARK CNNscore 0.816537261
REMARK CNNaffinity 7.06178665
REMARK  9 active torsions:
REMARK  status: ('A' for Active; 'I' for Inactive)
REMARK    1  A    between atoms: C3_3  and  C4_4 
REMARK    2  A    between atoms: C3_3  and  C27_30 
REMARK    3  A    between atoms: C4_4  and  C5_5 
REMARK    4  A    between atoms: C5_5  and  C6_6 
REMARK    5  A    between atoms: C6_6  and  C8_8 
REMARK    6  A    between atoms: C15_15  and  O1_16 
REMARK    7  A    between atoms: C18_19  and  C19_20 
REMARK    8  A    between atoms: C19_20  and  O2_21 
REMARK    9  A    between atoms: C22_24  and  O3_25 
ROOT
HETATM    1  C8  UNL     1       2.808  56.746  -8.684  1.00  0.00     0.001 C 
HETATM    2  C9  UNL     1       3.759  56.378  -9.853  1.00  0.00     0.006 C 
HETATM    3  C10 UNL     1       3.002  55.370 -10.733  1.00  0.00     0.010 C 
HETATM    4  C11 UNL     1       1.567  55.407 -10.209  1.00  0.00     0.026 C 
HETATM    5  C12 UNL     1       0.576  54.321 -10.565  1.00  0.00    -0.072 C 
HETATM    6  C13 UNL     1      -0.505  54.104  -9.772  1.00  0.00    -0.064 C 
HETATM    7  C14 UNL     1      -0.690  54.886  -8.463  1.00  0.00     0.068 C 
HETATM    8  C15 UNL     1       0.360  55.981  -8.150  1.00  0.00     0.131 C 
HETATM    9  C16 UNL     1       1.755  55.594  -8.679  1.00  0.00    -0.006 C 
HETATM   10  C17 UNL     1       2.287  54.323  -7.972  1.00  0.00     0.019 C 
HETATM   11  C18 UNL     1      -1.557  53.003 -10.109  1.00  0.00     0.009 C 
HETATM   12  C20 UNL     1      -3.025  53.431  -9.771  1.00  0.00     0.019 C 
HETATM   13  C21 UNL     1      -4.083  53.137 -10.847  1.00  0.00     0.033 C 
HETATM   14  C22 UNL     1      -3.900  51.806 -11.565  1.00  0.00     0.118 C 
HETATM   15  C23 UNL     1      -2.482  51.607 -12.109  1.00  0.00     0.037 C 
HETATM   16  C24 UNL     1      -1.501  52.697 -11.642  1.00  0.00     0.003 C 
HETATM   17  C25 UNL     1      -0.081  52.389 -12.114  1.00  0.00     0.010 C 
HETATM   18  C26 UNL     1       0.841  53.576 -11.851  1.00  0.00     0.035 C 
ENDROOT
BRANCH   1  19
HETATM   19  C6  UNL     1       3.494  57.140  -7.342  1.00  0.00    -0.013 C 
HETATM   20  C7  UNL     1       2.785  58.377  -6.765  1.00  0.00     0.010 C 
BRANCH  19  21
HETATM   21  C5  UNL     1       5.013  57.418  -7.434  1.00  0.00     0.009 C 
BRANCH  21  22
HETATM   22  C4  UNL     1       5.881  56.840  -6.300  1.00  0.00     0.034 C 
BRANCH  22  23
HETATM   23  C3  UNL     1       6.852  55.746  -6.717  1.00  0.00    -0.081 C 
HETATM   24  C2  UNL     1       8.116  55.686  -6.249  1.00  0.00    -0.028 C 
HETATM   25  C1  UNL     1       8.772  56.658  -5.319  1.00  0.00     0.036 C 
BRANCH  23  26
HETATM   26  C27 UNL     1       6.260  54.663  -7.622  1.00  0.00     0.006 C 
HETATM   27  C28 UNL     1       6.859  54.608  -9.031  1.00  0.00     0.014 C 
HETATM   28  C29 UNL     1       6.369  53.288  -6.953  1.00  0.00     0.014 C 
ENDBRANCH  23  26
ENDBRANCH  22  23
ENDBRANCH  21  22
ENDBRANCH  19  21
ENDBRANCH   1  19
BRANCH   8  29
HETATM   29  O1  UNL     1       0.361  56.265  -6.754  1.00  0.00    -0.394 OA
HETATM   30  H22 UNL     1       0.643  55.468  -6.274  1.00  0.00     0.210 HD
ENDBRANCH   8  29
BRANCH  11  31
HETATM   31  C19 UNL     1      -1.148  51.780  -9.219  1.00  0.00     0.178 C 
BRANCH  31  32
HETATM   32  O2  UNL     1      -1.549  50.525  -9.753  1.00  0.00    -0.400 OA
HETATM   33  H28 UNL     1      -1.177  49.842  -9.163  1.00  0.00     0.209 HD
ENDBRANCH  31  32
ENDBRANCH  11  31
BRANCH  14  34
HETATM   34  O3  UNL     1      -4.253  50.742 -10.687  1.00  0.00    -0.396 OA
HETATM   35  H34 UNL     1      -3.504  50.634 -10.061  1.00  0.00     0.210 HD
ENDBRANCH  14  34
TORSDOF 9
ENDMDL
