MODEL 1
REMARK minimizedAffinity -7.53238344
REMARK CNNscore 0.84391439
REMARK CNNaffinity 6.89357758
REMARK  9 active torsions:
REMARK  status: ('A' for Active; 'I' for Inactive)
REMARK    1  A    between atoms: C2_2  and  C3_3 
REMARK    2  A    between atoms: C2_2  and  C9_12 
REMARK    3  A    between atoms: C3_3  and  C4_4 
REMARK    4  A    between atoms: C4_4  and  C5_5 
REMARK    5  A    between atoms: C5_5  and  O1_6 
REMARK    6  A    between atoms: C5_5  and  C6_7 
REMARK    7  A    between atoms: C6_7  and  O2_9 
REMARK    8  A    between atoms: C6_7  and  C8_10 
REMARK    9  A    between atoms: C8_10  and  O3_11 
ROOT
HETATM    1  C9  UNL     1       4.522  56.116  -8.063  1.00  0.00    -0.001 C 
HETATM    2  C10 UNL     1       5.436  55.170  -8.897  1.00  0.00     0.007 C 
HETATM    3  C11 UNL     1       4.519  54.276  -9.751  1.00  0.00     0.015 C 
HETATM    4  C12 UNL     1       3.132  54.938  -9.670  1.00  0.00    -0.004 C 
HETATM    5  C13 UNL     1       3.113  56.088 -10.728  1.00  0.00     0.021 C 
HETATM    6  C14 UNL     1       1.870  54.138  -9.960  1.00  0.00     0.007 C 
HETATM    7  C15 UNL     1       0.664  54.433  -9.411  1.00  0.00     0.007 C 
HETATM    8  C16 UNL     1       0.631  55.515  -8.340  1.00  0.00     0.157 C 
HETATM    9  O4  UNL     1      -0.406  55.767  -7.735  1.00  0.00    -0.293 OA
HETATM   10  C17 UNL     1       1.898  56.279  -7.969  1.00  0.00     0.094 C 
HETATM   11  C18 UNL     1       3.137  55.407  -8.168  1.00  0.00    -0.022 C 
HETATM   12  C19 UNL     1       3.088  54.225  -7.148  1.00  0.00     0.017 C 
HETATM   13  C20 UNL     1      -0.672  53.731  -9.781  1.00  0.00    -0.007 C 
HETATM   14  C21 UNL     1      -1.068  52.827  -8.593  1.00  0.00     0.021 C 
HETATM   15  C22 UNL     1      -1.789  54.767 -10.079  1.00  0.00     0.022 C 
HETATM   16  C23 UNL     1      -3.076  54.221 -10.694  1.00  0.00     0.080 C 
HETATM   17  C24 UNL     1      -3.055  52.766 -11.091  1.00  0.00     0.135 C 
HETATM   18  O5  UNL     1      -4.111  52.125 -11.073  1.00  0.00    -0.297 OA
HETATM   19  C25 UNL     1      -1.756  52.147 -11.615  1.00  0.00     0.018 C 
HETATM   20  C26 UNL     1      -1.833  52.218 -13.155  1.00  0.00     0.023 C 
HETATM   21  C27 UNL     1      -1.735  50.656 -11.215  1.00  0.00     0.023 C 
HETATM   22  C28 UNL     1      -0.500  52.939 -11.124  1.00  0.00     0.021 C 
HETATM   23  C29 UNL     1       0.778  52.102 -11.098  1.00  0.00     0.090 C 
HETATM   24  C30 UNL     1       1.967  53.009 -10.938  1.00  0.00     0.157 C 
HETATM   25  O6  UNL     1       3.001  52.792 -11.568  1.00  0.00    -0.293 OA
ENDROOT
BRANCH   1  26
HETATM   26  C2  UNL     1       5.158  56.454  -6.677  1.00  0.00    -0.014 C 
HETATM   27  C1  UNL     1       4.682  57.800  -6.127  1.00  0.00     0.010 C 
BRANCH  26  28
HETATM   28  C3  UNL     1       6.710  56.441  -6.807  1.00  0.00     0.007 C 
BRANCH  28  29
HETATM   29  C4  UNL     1       7.474  57.229  -5.737  1.00  0.00     0.035 C 
BRANCH  29  30
HETATM   30  C5  UNL     1       8.406  56.428  -4.815  1.00  0.00     0.154 C 
BRANCH  30  31
HETATM   31  O1  UNL     1       8.559  55.118  -5.413  1.00  0.00    -0.392 OA
HETATM   32  H10 UNL     1       7.680  54.699  -5.427  1.00  0.00     0.210 HD
ENDBRANCH  30  31
BRANCH  30  33
HETATM   33  C6  UNL     1       9.851  56.959  -4.574  1.00  0.00     0.101 C 
HETATM   34  C7  UNL     1      10.129  57.329  -3.111  1.00  0.00     0.051 C 
BRANCH  33  35
HETATM   35  O2  UNL     1       9.967  58.195  -5.332  1.00  0.00    -0.385 OA
HETATM   36  H14 UNL     1       9.153  58.690  -5.099  1.00  0.00     0.210 HD
ENDBRANCH  33  35
BRANCH  33  37
HETATM   37  C8  UNL     1      10.952  56.030  -5.119  1.00  0.00     0.204 C 
BRANCH  37  38
HETATM   38  O3  UNL     1      12.226  56.668  -5.020  1.00  0.00    -0.398 OA
HETATM   39  H17 UNL     1      12.040  57.609  -5.231  1.00  0.00     0.209 HD
ENDBRANCH  37  38
ENDBRANCH  33  37
ENDBRANCH  30  33
ENDBRANCH  29  30
ENDBRANCH  28  29
ENDBRANCH  26  28
ENDBRANCH   1  26
TORSDOF 9
ENDMDL
