MODEL 1
REMARK minimizedAffinity -9.13904476
REMARK CNNscore 0.405617505
REMARK CNNaffinity 6.8506093
REMARK  15 active torsions:
REMARK  status: ('A' for Active; 'I' for Inactive)
REMARK    1  A    between atoms: C2_2  and  C26_34 
REMARK    2  A    between atoms: C3_3  and  C4_4 
REMARK    3  A    between atoms: C5_5  and  C6_6 
REMARK    4  A    between atoms: C6_6  and  C7_7 
REMARK    5  A    between atoms: C7_7  and  O1_8 
REMARK    6  A    between atoms: C7_7  and  C8_9 
REMARK    7  A    between atoms: C8_9  and  C9_10 
REMARK    8  A    between atoms: C14_16  and  O3_17 
REMARK    9  A    between atoms: C22_28  and  O7_29 
REMARK   10  A    between atoms: C23_30  and  O8_31 
REMARK   11  A    between atoms: C26_34  and  C27_35 
REMARK   12  A    between atoms: C28_36  and  C29_37 
REMARK   13  A    between atoms: C30_38  and  C31_39 
REMARK   14  A    between atoms: C31_39  and  C32_40 
REMARK   15  A    between atoms: C32_40  and  O9_41 
ROOT
HETATM    1  C9  UNL     1      -0.733   5.538  11.532  1.00  0.00     0.134 C 
HETATM    2  C10 UNL     1      -0.293   5.116  12.944  1.00  0.00     0.033 C 
HETATM    3  C11 UNL     1       0.942   5.865  13.465  1.00  0.00     0.005 C 
HETATM    4  C12 UNL     1       0.694   7.357  13.724  1.00  0.00     0.032 C 
HETATM    5  C13 UNL     1       1.966   8.178  14.019  1.00  0.00     0.131 C 
HETATM    6  O2  UNL     1       2.741   8.228  12.816  1.00  0.00    -0.347 OA
HETATM    7  C14 UNL     1       3.787   9.194  12.821  1.00  0.00     0.191 C 
HETATM    8  C15 UNL     1       4.892   8.643  11.878  1.00  0.00     0.074 C 
HETATM    9  C16 UNL     1       4.649   8.701  10.355  1.00  0.00     0.037 C 
HETATM   10  C17 UNL     1       3.331   8.115   9.857  1.00  0.00     0.122 C 
HETATM   11  C18 UNL     1       3.209   8.150   8.338  1.00  0.00     0.035 C 
HETATM   12  C19 UNL     1       2.364   6.934   8.003  1.00  0.00     0.045 C 
HETATM   13  C20 UNL     1       2.188   6.207   9.330  1.00  0.00     0.221 C 
HETATM   14  O4  UNL     1       3.210   6.728  10.195  1.00  0.00    -0.371 OA
HETATM   15  C21 UNL     1       0.783   6.434   9.907  1.00  0.00     0.288 C 
HETATM   16  O5  UNL     1       0.105   7.434   9.713  1.00  0.00    -0.262 OA
HETATM   17  O6  UNL     1       0.416   5.368  10.673  1.00  0.00    -0.314 OA
HETATM   18  C22 UNL     1       4.345   9.479  14.256  1.00  0.00     0.209 C 
HETATM   19  C23 UNL     1       4.258   8.248  15.160  1.00  0.00     0.158 C 
HETATM   20  C24 UNL     1       2.845   7.612  15.160  1.00  0.00     0.042 C 
HETATM   21  C25 UNL     1       2.152   7.796  16.516  1.00  0.00     0.015 C 
ENDROOT
BRANCH   1  22
HETATM   22  C8  UNL     1      -1.878   4.638  11.037  1.00  0.00     0.064 C 
BRANCH  22  23
HETATM   23  C7  UNL     1      -1.770   3.220  11.608  1.00  0.00     0.124 C 
BRANCH  23  24
HETATM   24  C6  UNL     1      -3.133   2.528  11.803  1.00  0.00     0.059 C 
BRANCH  24  25
HETATM   25  C5  UNL     1      -4.225   3.032  10.892  1.00  0.00    -0.024 C 
HETATM   26  C4  UNL     1      -5.523   3.224  11.175  1.00  0.00    -0.004 C 
BRANCH  26  27
HETATM   27  C3  UNL     1      -6.167   3.028  12.455  1.00  0.00     0.002 C 
HETATM   28  C2  UNL     1      -6.838   3.956  13.169  1.00  0.00    -0.080 C 
HETATM   29  C1  UNL     1      -7.458   3.587  14.495  1.00  0.00     0.043 C 
BRANCH  28  30
HETATM   30  C26 UNL     1      -7.039   5.407  12.771  1.00  0.00     0.060 C 
BRANCH  30  31
HETATM   31  C27 UNL     1      -8.455   5.653  12.323  1.00  0.00    -0.022 C 
HETATM   32  C28 UNL     1      -9.461   6.227  13.000  1.00  0.00    -0.004 C 
BRANCH  32  33
HETATM   33  C29 UNL     1      -9.374   6.787  14.329  1.00  0.00    -0.004 C 
HETATM   34  C30 UNL     1     -10.178   7.727  14.852  1.00  0.00    -0.025 C 
BRANCH  34  35
HETATM   35  C31 UNL     1     -11.381   8.388  14.234  1.00  0.00     0.053 C 
BRANCH  35  36
HETATM   36  C32 UNL     1     -12.627   7.496  14.300  1.00  0.00     0.168 C 
BRANCH  36  37
HETATM   37  O9  UNL     1     -13.143   7.390  15.622  1.00  0.00    -0.401 OA
HETATM   38  H50 UNL     1     -12.389   7.320  16.232  1.00  0.00     0.209 HD
ENDBRANCH  36  37
ENDBRANCH  35  36
ENDBRANCH  34  35
ENDBRANCH  32  33
ENDBRANCH  30  31
ENDBRANCH  28  30
ENDBRANCH  26  27
ENDBRANCH  24  25
ENDBRANCH  23  24
BRANCH  23  39
HETATM   39  O1  UNL     1      -0.942   2.447  10.736  1.00  0.00    -0.395 OA
HETATM   40  H10 UNL     1      -0.921   1.538  11.078  1.00  0.00     0.210 HD
ENDBRANCH  23  39
ENDBRANCH  22  23
ENDBRANCH   1  22
BRANCH   7  41
HETATM   41  O3  UNL     1       3.268  10.445  12.347  1.00  0.00    -0.363 OA
HETATM   42  H21 UNL     1       3.742  10.682  11.533  1.00  0.00     0.213 HD
ENDBRANCH   7  41
BRANCH  19  43
HETATM   43  O8  UNL     1       5.248   7.276  14.783  1.00  0.00    -0.392 OA
HETATM   44  H35 UNL     1       4.866   6.687  14.104  1.00  0.00     0.210 HD
ENDBRANCH  19  43
BRANCH  18  45
HETATM   45  O7  UNL     1       3.585  10.542  14.879  1.00  0.00    -0.387 OA
HETATM   46  H33 UNL     1       3.198  11.042  14.128  1.00  0.00     0.210 HD
ENDBRANCH  18  45
TORSDOF 15
ENDMDL
