MODEL 1
REMARK minimizedAffinity -6.82701111
REMARK CNNscore 0.825450778
REMARK CNNaffinity 7.60608912
REMARK  19 active torsions:
REMARK  status: ('A' for Active; 'I' for Inactive)
REMARK    1  A    between atoms: C2_2  and  C3_3 
REMARK    2  A    between atoms: C2_2  and  C30_37 
REMARK    3  A    between atoms: C4_4  and  C5_5 
REMARK    4  A    between atoms: C6_6  and  C7_7 
REMARK    5  A    between atoms: C6_6  and  C11_14 
REMARK    6  A    between atoms: C7_7  and  O1_8 
REMARK    7  A    between atoms: O1_8  and  C8_9 
REMARK    8  A    between atoms: C8_9  and  C9_10 
REMARK    9  A    between atoms: C9_10  and  O2_11 
REMARK   10  A    between atoms: C9_10  and  C10_12 
REMARK   11  A    between atoms: C10_12  and  O3_13 
REMARK   12  A    between atoms: C17_20  and  C19_22 
REMARK   13  A    between atoms: C22_26  and  O5_28 
REMARK   14  A    between atoms: C24_29  and  C25_30 
REMARK   15  A    between atoms: C25_30  and  C26_31 
REMARK   16  A    between atoms: C26_31  and  O6_32 
REMARK   17  A    between atoms: C29_35  and  O7_36 
REMARK   18  A    between atoms: C30_37  and  C31_38 
REMARK   19  A    between atoms: C31_38  and  C32_39 
ROOT
HETATM    1  C11 UNL     1      -1.928  52.463 -12.373  1.00  0.00     0.052 C 
HETATM    2  C12 UNL     1      -2.672  51.799 -13.541  1.00  0.00     0.013 C 
HETATM    3  C13 UNL     1      -2.258  50.343 -13.484  1.00  0.00     0.017 C 
HETATM    4  C14 UNL     1      -0.755  50.318 -13.029  1.00  0.00     0.030 C 
HETATM    5  C15 UNL     1       0.183  50.742 -14.239  1.00  0.00     0.033 C 
HETATM    6  C16 UNL     1       0.046  49.759 -15.405  1.00  0.00    -0.066 C 
HETATM    7  C17 UNL     1      -0.085  50.119 -16.710  1.00  0.00    -0.021 C 
HETATM    8  C18 UNL     1      -0.369  49.167 -17.844  1.00  0.00     0.052 C 
HETATM    9  C20 UNL     1      -0.073  48.300 -14.998  1.00  0.00     0.038 C 
HETATM   10  C21 UNL     1       0.354  48.012 -13.569  1.00  0.00     0.042 C 
HETATM   11  C22 UNL     1      -0.377  48.856 -12.506  1.00  0.00     0.066 C 
HETATM   12  C23 UNL     1      -1.562  48.016 -11.976  1.00  0.00     0.047 C 
HETATM   13  C24 UNL     1       1.632  51.226 -13.860  1.00  0.00    -0.003 C 
HETATM   14  C27 UNL     1       1.774  51.546 -12.362  1.00  0.00     0.008 C 
HETATM   15  C28 UNL     1       0.556  52.257 -11.803  1.00  0.00     0.040 C 
HETATM   16  C29 UNL     1      -0.765  51.469 -11.951  1.00  0.00     0.076 C 
ENDROOT
BRANCH   1  17
HETATM   17  C6  UNL     1      -2.832  52.971 -11.237  1.00  0.00    -0.049 C 
HETATM   18  C5  UNL     1      -2.466  53.939 -10.365  1.00  0.00     0.005 C 
BRANCH  18  19
HETATM   19  C4  UNL     1      -1.228  54.684 -10.323  1.00  0.00     0.001 C 
HETATM   20  C3  UNL     1      -0.279  54.458  -9.399  1.00  0.00     0.006 C 
BRANCH  20  21
HETATM   21  C2  UNL     1       0.974  55.193  -9.256  1.00  0.00    -0.067 C 
HETATM   22  C1  UNL     1       1.137  56.027  -8.213  1.00  0.00     0.019 C 
BRANCH  21  23
HETATM   23  C30 UNL     1       2.063  55.060 -10.306  1.00  0.00     0.041 C 
BRANCH  23  24
HETATM   24  C31 UNL     1       3.120  56.168 -10.204  1.00  0.00     0.032 C 
BRANCH  24  25
HETATM   25  C32 UNL     1       4.542  55.674 -10.201  1.00  0.00    -0.024 C 
HETATM   26  C33 UNL     1       5.336  55.449  -9.136  1.00  0.00    -0.091 C 
HETATM   27  C34 UNL     1       4.910  55.619  -7.707  1.00  0.00     0.042 C 
HETATM   28  C35 UNL     1       6.757  54.978  -9.323  1.00  0.00     0.042 C 
ENDBRANCH  24  25
ENDBRANCH  23  24
ENDBRANCH  21  23
ENDBRANCH  20  21
ENDBRANCH  18  19
BRANCH  17  29
HETATM   29  C7  UNL     1      -4.213  52.319 -11.124  1.00  0.00     0.202 C 
BRANCH  29  30
HETATM   30  O1  UNL     1      -4.155  51.027 -10.505  1.00  0.00    -0.384 OA
BRANCH  30  31
HETATM   31  C8  UNL     1      -5.465  50.513 -10.206  1.00  0.00     0.201 C 
BRANCH  31  32
HETATM   32  C9  UNL     1      -5.289  49.078  -9.700  1.00  0.00     0.165 C 
BRANCH  32  33
HETATM   33  O2  UNL     1      -4.296  49.076  -8.660  1.00  0.00    -0.391 OA
HETATM   34  H11 UNL     1      -4.562  49.807  -8.064  1.00  0.00     0.210 HD
ENDBRANCH  32  33
BRANCH  32  35
HETATM   35  C10 UNL     1      -4.836  48.126 -10.806  1.00  0.00     0.198 C 
BRANCH  35  36
HETATM   36  O3  UNL     1      -5.136  48.680 -12.087  1.00  0.00    -0.398 OA
HETATM   37  H14 UNL     1      -4.753  49.581 -12.065  1.00  0.00     0.209 HD
ENDBRANCH  35  36
ENDBRANCH  32  35
ENDBRANCH  31  32
ENDBRANCH  30  31
ENDBRANCH  29  30
ENDBRANCH  17  29
ENDBRANCH   1  17
BRANCH  16  38
HETATM   38  O7  UNL     1      -1.052  50.882 -10.670  1.00  0.00    -0.388 OA
HETATM   39  H43 UNL     1      -1.082  51.607 -10.017  1.00  0.00     0.210 HD
ENDBRANCH  16  38
BRANCH  11  40
HETATM   40  O5  UNL     1       0.522  48.923 -11.391  1.00  0.00    -0.389 OA
HETATM   41  H32 UNL     1       0.079  49.501 -10.734  1.00  0.00     0.210 HD
ENDBRANCH  11  40
BRANCH  13  42
HETATM   42  C25 UNL     1       2.892  50.435 -14.300  1.00  0.00     0.031 C 
BRANCH  42  43
HETATM   43  C26 UNL     1       3.673  49.682 -13.229  1.00  0.00     0.164 C 
BRANCH  43  44
HETATM   44  O6  UNL     1       5.057  49.665 -13.540  1.00  0.00    -0.401 OA
HETATM   45  H38 UNL     1       5.513  49.226 -12.799  1.00  0.00     0.209 HD
ENDBRANCH  43  44
ENDBRANCH  42  43
ENDBRANCH  13  42
BRANCH   7  46
HETATM   46  C19 UNL     1       0.050  51.538 -17.176  1.00  0.00     0.265 C 
HETATM   47  O4  UNL     1      -0.042  51.856 -18.358  1.00  0.00    -0.302 OA
ENDBRANCH   7  46
TORSDOF 19
ENDMDL
