MODEL 1
REMARK minimizedAffinity -7.73335695
REMARK CNNscore 0.620036006
REMARK CNNaffinity 6.68390512
REMARK  7 active torsions:
REMARK  status: ('A' for Active; 'I' for Inactive)
REMARK    1  A    between atoms: C2_2  and  C4_4 
REMARK    2  A    between atoms: C7_7  and  C8_8 
REMARK    3  A    between atoms: C8_8  and  O2_10 
REMARK    4  A    between atoms: C15_17  and  O3_18 
REMARK    5  A    between atoms: C21_24  and  O4_25 
REMARK    6  A    between atoms: C22_26  and  C24_28 
REMARK    7  A    between atoms: C24_28  and  O5_29 
ROOT
HETATM    1  C4  UNL     1       0.871  10.187  15.001  1.00  0.00     0.019 C 
HETATM    2  C5  UNL     1       2.188  10.439  14.217  1.00  0.00     0.011 C 
HETATM    3  C6  UNL     1       2.063   9.688  12.882  1.00  0.00     0.021 C 
HETATM    4  C7  UNL     1       1.010   8.611  13.158  1.00  0.00     0.050 C 
HETATM    5  C9  UNL     1       0.305   8.048  11.918  1.00  0.00     0.022 C 
HETATM    6  C10 UNL     1      -0.888   7.159  12.327  1.00  0.00     0.011 C 
HETATM    7  C11 UNL     1      -1.933   7.849  13.276  1.00  0.00    -0.032 C 
HETATM    8  C12 UNL     1      -2.646   8.927  12.391  1.00  0.00     0.016 C 
HETATM    9  C13 UNL     1      -1.181   8.540  14.479  1.00  0.00     0.003 C 
HETATM   10  C14 UNL     1      -2.165   9.269  15.393  1.00  0.00     0.038 C 
HETATM   11  C15 UNL     1      -3.302   8.379  15.918  1.00  0.00     0.124 C 
HETATM   12  C16 UNL     1      -4.052   7.575  14.809  1.00  0.00     0.032 C 
HETATM   13  C17 UNL     1      -5.338   6.719  15.279  1.00  0.00    -0.033 C 
HETATM   14  C18 UNL     1      -4.956   5.667  16.347  1.00  0.00     0.016 C 
HETATM   15  C19 UNL     1      -6.404   7.660  15.924  1.00  0.00     0.012 C 
HETATM   16  C20 UNL     1      -7.788   7.037  16.124  1.00  0.00     0.033 C 
HETATM   17  C21 UNL     1      -8.362   6.461  14.836  1.00  0.00     0.128 C 
HETATM   18  C22 UNL     1      -7.417   5.433  14.144  1.00  0.00     0.007 C 
HETATM   19  C23 UNL     1      -7.389   4.124  14.960  1.00  0.00     0.020 C 
HETATM   20  C25 UNL     1      -5.989   6.096  13.974  1.00  0.00     0.007 C 
HETATM   21  C26 UNL     1      -4.975   5.239  13.196  1.00  0.00     0.007 C 
HETATM   22  C27 UNL     1      -3.772   6.069  12.748  1.00  0.00     0.011 C 
HETATM   23  C28 UNL     1      -3.011   6.793  13.889  1.00  0.00    -0.030 C 
HETATM   24  C29 UNL     1      -2.268   5.687  14.701  1.00  0.00     0.016 C 
HETATM   25  C30 UNL     1      -0.014   9.429  13.983  1.00  0.00     0.017 C 
ENDROOT
BRANCH   4  26
HETATM   26  C8  UNL     1       1.711   7.468  13.909  1.00  0.00     0.149 C 
HETATM   27  O1  UNL     1       1.518   7.096  15.054  1.00  0.00    -0.649 OA
BRANCH  26  28
HETATM   28  O2  UNL     1       2.662   6.859  13.171  1.00  0.00    -0.776 OA
HETATM   29  H11 UNL     1       3.025   6.174  13.771  1.00  0.00     0.167 HD
ENDBRANCH  26  28
ENDBRANCH   4  26
BRANCH   1  30
HETATM   30  C2  UNL     1       0.365  11.485  15.613  1.00  0.00    -0.088 C 
HETATM   31  C1  UNL     1      -0.219  11.596  16.818  1.00  0.00     0.014 C 
HETATM   32  C3  UNL     1       0.550  12.705  14.746  1.00  0.00     0.043 C 
ENDBRANCH   1  30
BRANCH  11  33
HETATM   33  O3  UNL     1      -4.180   9.252  16.627  1.00  0.00    -0.395 OA
HETATM   34  H23 UNL     1      -4.539   9.894  15.990  1.00  0.00     0.210 HD
ENDBRANCH  11  33
BRANCH  18  35
HETATM   35  C24 UNL     1      -8.052   5.121  12.747  1.00  0.00     0.176 C 
BRANCH  35  36
HETATM   36  O5  UNL     1      -8.704   3.855  12.686  1.00  0.00    -0.400 OA
HETATM   37  H39 UNL     1      -9.555   3.937  13.147  1.00  0.00     0.209 HD
ENDBRANCH  35  36
ENDBRANCH  18  35
BRANCH  17  38
HETATM   38  O4  UNL     1      -8.637   7.546  13.944  1.00  0.00    -0.395 OA
HETATM   39  H33 UNL     1      -9.227   8.167  14.406  1.00  0.00     0.210 HD
ENDBRANCH  17  38
TORSDOF 7
ENDMDL
