MODEL 1
REMARK minimizedAffinity -10.2851448
REMARK  4 active torsions:
REMARK  status: ('A' for Active; 'I' for Inactive)
REMARK    1  A    between atoms: C2_2  and  C4_4 
REMARK    2  A    between atoms: C4_4  and  C5_5 
REMARK    3  A    between atoms: C5_5  and  O1_6 
REMARK    4  A    between atoms: C8_9  and  C9_10 
ROOT
HETATM    1  C9  UNL     1      -2.233  50.794 -22.793  1.00  0.00     0.001 C 
HETATM    2  C10 UNL     1      -3.514  51.648 -22.765  1.00  0.00     0.007 C 
HETATM    3  C11 UNL     1      -4.593  50.795 -22.089  1.00  0.00     0.011 C 
HETATM    4  C12 UNL     1      -3.874  49.570 -21.477  1.00  0.00    -0.032 C 
HETATM    5  C13 UNL     1      -4.870  48.382 -21.419  1.00  0.00     0.016 C 
HETATM    6  C14 UNL     1      -3.400  49.826 -19.987  1.00  0.00     0.004 C 
HETATM    7  C15 UNL     1      -3.055  51.258 -19.526  1.00  0.00     0.007 C 
HETATM    8  C16 UNL     1      -2.902  51.358 -17.991  1.00  0.00     0.007 C 
HETATM    9  C17 UNL     1      -2.752  50.004 -17.245  1.00  0.00     0.010 C 
HETATM   10  C18 UNL     1      -2.291  50.153 -15.764  1.00  0.00     0.018 C 
HETATM   11  C19 UNL     1      -2.477  48.833 -14.992  1.00  0.00     0.023 C 
HETATM   12  C20 UNL     1      -3.112  51.231 -15.030  1.00  0.00     0.023 C 
HETATM   13  C21 UNL     1      -0.809  50.538 -15.707  1.00  0.00     0.135 C 
HETATM   14  O2  UNL     1      -0.326  51.121 -14.735  1.00  0.00    -0.297 OA
HETATM   15  C22 UNL     1       0.062  50.210 -16.894  1.00  0.00     0.080 C 
HETATM   16  C23 UNL     1      -0.415  48.950 -17.592  1.00  0.00     0.018 C 
HETATM   17  C24 UNL     1      -1.857  49.056 -18.064  1.00  0.00    -0.026 A 
HETATM   18  C25 UNL     1      -2.485  47.788 -18.612  1.00  0.00     0.021 A 
HETATM   19  C26 UNL     1      -2.227  48.933 -19.558  1.00  0.00    -0.027 A 
HETATM   20  C27 UNL     1      -1.111  48.811 -20.570  1.00  0.00     0.011 C 
HETATM   21  C28 UNL     1      -1.621  48.415 -21.942  1.00  0.00     0.011 C 
HETATM   22  C29 UNL     1      -2.716  49.333 -22.517  1.00  0.00    -0.032 C 
HETATM   23  C30 UNL     1      -3.206  48.642 -23.814  1.00  0.00     0.016 C 
ENDROOT
BRANCH   1  24
HETATM   24  C8  UNL     1      -1.270  51.065 -23.983  1.00  0.00     0.014 C 
HETATM   25  C7  UNL     1      -0.014  51.797 -23.466  1.00  0.00     0.010 C 
HETATM   26  C6  UNL     1       0.802  52.357 -24.625  1.00  0.00     0.041 C 
HETATM   27  C4  UNL     1      -0.014  53.356 -25.489  1.00  0.00     0.085 C 
HETATM   28  O3  UNL     1      -1.432  53.170 -25.252  1.00  0.00    -0.377 OA
HETATM   29  C31 UNL     1      -1.856  51.810 -25.195  1.00  0.00     0.174 C 
BRANCH  27  30
HETATM   30  C2  UNL     1       0.314  53.171 -27.009  1.00  0.00     0.014 C 
HETATM   31  C1  UNL     1       0.946  51.810 -27.333  1.00  0.00     0.012 C 
HETATM   32  C3  UNL     1      -0.890  53.404 -27.929  1.00  0.00     0.012 C 
ENDBRANCH  27  30
BRANCH  27  33
HETATM   33  C5  UNL     1       0.262  54.814 -25.028  1.00  0.00     0.202 C 
BRANCH  33  34
HETATM   34  O1  UNL     1       0.288  55.702 -26.148  1.00  0.00    -0.398 OA
HETATM   35  H10 UNL     1       0.880  55.263 -26.791  1.00  0.00     0.209 HD
ENDBRANCH  33  34
ENDBRANCH  27  33
ENDBRANCH   1  24
TORSDOF 4
ENDMDL
