MODEL 1
REMARK minimizedAffinity -11.2002335
REMARK CNNscore 0.520463824
REMARK CNNaffinity 8.54401684
REMARK  13 active torsions:
REMARK  status: ('A' for Active; 'I' for Inactive)
REMARK    1  A    between atoms: C5_6  and  C6_7 
REMARK    2  A    between atoms: C5_6  and  C31_35 
REMARK    3  A    between atoms: C23_24  and  O2_25 
REMARK    4  A    between atoms: C30_33  and  O4_34 
REMARK    5  A    between atoms: C32_37  and  C33_38 
REMARK    6  A    between atoms: C33_38  and  O6_40 
REMARK    7  A    between atoms: C33_38  and  C35_41 
REMARK    8  A    between atoms: C35_41  and  C37_43 
REMARK    9  A    between atoms: C35_41  and  C38_45 
REMARK   10  A    between atoms: C37_43  and  O7_44 
REMARK   11  A    between atoms: C38_45  and  C39_46 
REMARK   12  A    between atoms: C39_46  and  C40_47 
REMARK   13  A    between atoms: C43_51  and  N2_52 
ROOT
HETATM    1  C1  UNL     1       1.151  51.737 -27.868  1.00  0.00     0.010 C 
HETATM    2  C2  UNL     1       0.122  52.226 -26.850  1.00  0.00    -0.014 C 
HETATM    3  C3  UNL     1       0.681  53.371 -26.021  1.00  0.00     0.030 C 
HETATM    4  C4  UNL     1      -0.287  53.801 -24.931  1.00  0.00     0.169 C 
HETATM    5  O1  UNL     1      -1.427  52.965 -24.803  1.00  0.00    -0.377 OA
HETATM    6  C5  UNL     1      -1.207  51.532 -24.735  1.00  0.00     0.094 C 
HETATM    7  C45 UNL     1      -0.327  51.080 -25.930  1.00  0.00     0.045 C 
ENDROOT
BRANCH   6   8
HETATM    8  C6  UNL     1      -2.678  50.980 -24.797  1.00  0.00     0.035 C 
HETATM    9  C7  UNL     1      -3.004  50.159 -26.113  1.00  0.00     0.016 C 
HETATM   10  C8  UNL     1      -4.012  49.084 -25.686  1.00  0.00     0.026 C 
HETATM   11  C9  UNL     1      -5.122  48.653 -26.636  1.00  0.00     0.013 C 
HETATM   12  C30 UNL     1      -4.608  49.678 -24.418  1.00  0.00     0.094 C 
HETATM   13  C10 UNL     1      -6.051  47.634 -25.920  1.00  0.00     0.043 C 
HETATM   14  C11 UNL     1      -6.240  47.857 -24.429  1.00  0.00    -0.006 C 
HETATM   15  C12 UNL     1      -5.548  48.777 -23.729  1.00  0.00    -0.030 C 
HETATM   16  C26 UNL     1      -7.349  47.121 -23.739  1.00  0.00     0.161 C 
HETATM   17  C13 UNL     1      -5.865  49.129 -22.312  1.00  0.00     0.032 C 
HETATM   18  C14 UNL     1      -4.982  50.204 -21.572  1.00  0.00    -0.004 C 
HETATM   19  C20 UNL     1      -6.245  47.854 -21.503  1.00  0.00    -0.014 C 
HETATM   20  C15 UNL     1      -4.465  49.803 -20.169  1.00  0.00     0.014 C 
HETATM   21  C27 UNL     1      -3.891  50.958 -22.416  1.00  0.00     0.018 C 
HETATM   22  C16 UNL     1      -5.336  48.796 -19.367  1.00  0.00     0.013 C 
HETATM   23  C17 UNL     1      -4.485  47.582 -19.137  1.00  0.00    -0.026 C 
HETATM   24  C25 UNL     1      -6.633  48.425 -20.111  1.00  0.00     0.006 C 
HETATM   25  C18 UNL     1      -4.348  46.673 -20.109  1.00  0.00    -0.029 C 
HETATM   26  C19 UNL     1      -5.095  46.771 -21.406  1.00  0.00     0.038 C 
HETATM   27  C24 UNL     1      -7.607  47.486 -19.399  1.00  0.00     0.037 C 
HETATM   28  C23 UNL     1      -8.931  47.391 -20.185  1.00  0.00     0.119 C 
HETATM   29  C22 UNL     1      -8.792  47.665 -21.696  1.00  0.00     0.045 C 
HETATM   30  C21 UNL     1      -7.446  47.139 -22.207  1.00  0.00     0.072 C 
HETATM   31  C28 UNL     1      -3.367  50.160 -23.632  1.00  0.00    -0.002 C 
HETATM   32  C29 UNL     1      -2.460  49.036 -23.094  1.00  0.00     0.019 C 
HETATM   33  O3  UNL     1      -8.166  46.494 -24.414  1.00  0.00    -0.292 OA
BRANCH  28  34
HETATM   34  O2  UNL     1      -9.456  46.080 -19.982  1.00  0.00    -0.396 OA
HETATM   35  H30 UNL     1     -10.332  46.042 -20.405  1.00  0.00     0.210 HD
ENDBRANCH  28  34
BRANCH  12  36
HETATM   36  O4  UNL     1      -5.453  50.810 -24.721  1.00  0.00    -0.384 OA
HETATM   37  H39 UNL     1      -5.222  51.175 -25.588  1.00  0.00     0.211 HD
ENDBRANCH  12  36
ENDBRANCH   6   8
BRANCH   6  38
HETATM   38  C31 UNL     1      -0.643  51.221 -23.353  1.00  0.00     0.189 A 
HETATM   39  O5  UNL     1       0.628  51.790 -23.031  1.00  0.00    -0.369 OA
HETATM   40  C32 UNL     1      -0.478  52.242 -22.228  1.00  0.00     0.189 A 
BRANCH  40  41
HETATM   41  C33 UNL     1      -0.475  51.797 -20.760  1.00  0.00     0.092 C 
HETATM   42  C34 UNL     1      -0.104  50.299 -20.657  1.00  0.00     0.049 C 
BRANCH  41  43
HETATM   43  O6  UNL     1      -1.826  51.866 -20.258  1.00  0.00    -0.387 OA
HETATM   44  H45 UNL     1      -2.305  52.557 -20.751  1.00  0.00     0.210 HD
ENDBRANCH  41  43
BRANCH  41  45
HETATM   45  C35 UNL     1       0.439  52.707 -19.802  1.00  0.00     0.011 C 
HETATM   46  C36 UNL     1      -0.293  54.051 -19.532  1.00  0.00     0.020 C 
BRANCH  45  47
HETATM   47  C37 UNL     1       1.769  53.100 -20.515  1.00  0.00     0.176 C 
BRANCH  47  48
HETATM   48  O7  UNL     1       1.764  54.450 -20.947  1.00  0.00    -0.400 OA
HETATM   49  H51 UNL     1       2.622  54.619 -21.379  1.00  0.00     0.209 HD
ENDBRANCH  47  48
ENDBRANCH  45  47
BRANCH  45  50
HETATM   50  C38 UNL     1       0.709  51.970 -18.445  1.00  0.00     0.019 C 
BRANCH  50  51
HETATM   51  C39 UNL     1       1.475  52.733 -17.343  1.00  0.00     0.039 C 
BRANCH  51  52
HETATM   52  C40 UNL     1       1.935  51.903 -16.166  1.00  0.00    -0.054 A 
HETATM   53  C41 UNL     1       3.206  52.093 -15.613  1.00  0.00     0.024 A 
HETATM   54  C42 UNL     1       3.611  51.307 -14.542  1.00  0.00     0.090 A 
HETATM   55  N1  UNL     1       2.786  50.367 -14.062  1.00  0.00    -0.357 N 
HETATM   56  C43 UNL     1       1.570  50.135 -14.564  1.00  0.00     0.077 A 
HETATM   57  H58 UNL     1       3.066  49.777 -13.281  1.00  0.00     0.166 HD
HETATM   58  C44 UNL     1       1.118  50.896 -15.636  1.00  0.00     0.049 A 
BRANCH  56  59
HETATM   59  N2  UNL     1       0.841  49.104 -13.989  1.00  0.00    -0.289 NA
HETATM   60  H59 UNL     1       0.653  48.368 -14.678  1.00  0.00     0.125 HD
HETATM   61  H60 UNL     1      -0.087  49.428 -13.699  1.00  0.00     0.125 HD
ENDBRANCH  56  59
ENDBRANCH  51  52
ENDBRANCH  50  51
ENDBRANCH  45  50
ENDBRANCH  41  45
ENDBRANCH  40  41
ENDBRANCH   6  38
TORSDOF 13
ENDMDL
