MODEL 1
REMARK minimizedAffinity -9.57602406
REMARK CNNscore 0.799552798
REMARK CNNaffinity 7.43423986
REMARK  10 active torsions:
REMARK  status: ('A' for Active; 'I' for Inactive)
REMARK    1  A    between atoms: N1_15  and  C13_16 
REMARK    2  A    between atoms: C13_16  and  C14_17 
REMARK    3  A    between atoms: C14_17  and  N2_18 
REMARK    4  A    between atoms: N2_18  and  C15_19 
REMARK    5  A    between atoms: C15_19  and  C16_20 
REMARK    6  A    between atoms: C16_20  and  C17_21 
REMARK    7  A    between atoms: C17_21  and  N3_22 
REMARK    8  A    between atoms: N3_22  and  C18_23 
REMARK    9  A    between atoms: C18_23  and  C19_24 
REMARK   10  A    between atoms: C19_24  and  N4_25 
ROOT
HETATM    1  C16 UNL     1       0.585   7.577  15.363  1.00  0.00     0.060 C 
ENDROOT
BRANCH   1   2
HETATM    2  C15 UNL     1      -0.920   7.662  15.637  1.00  0.00     0.271 C 
BRANCH   2   3
HETATM    3  N2  UNL     1      -1.543   6.335  15.531  1.00  0.00     0.085 N 
HETATM    4  H11 UNL     1      -1.312   5.810  16.376  1.00  0.00     0.315 HD
BRANCH   3   5
HETATM    5  C14 UNL     1      -1.053   5.554  14.383  1.00  0.00     0.289 C 
BRANCH   5   6
HETATM    6  C13 UNL     1      -1.742   5.854  13.040  1.00  0.00     0.165 C 
BRANCH   6   7
HETATM    7  N1  UNL     1      -3.019   5.148  12.916  1.00  0.00    -0.278 N 
HETATM    8  C1  UNL     1      -4.166   5.812  13.349  1.00  0.00     0.261 A 
HETATM    9  O1  UNL     1      -4.162   6.950  13.814  1.00  0.00    -0.267 OA
HETATM   10  C2  UNL     1      -5.452   5.090  13.215  1.00  0.00     0.044 A 
HETATM   11  C3  UNL     1      -6.629   5.683  13.690  1.00  0.00     0.018 A 
HETATM   12  C11 UNL     1      -5.478   3.828  12.612  1.00  0.00     0.005 A 
HETATM   13  C4  UNL     1      -7.844   5.013  13.565  1.00  0.00     0.002 A 
HETATM   14  C5  UNL     1      -7.886   3.754  12.964  1.00  0.00     0.012 A 
HETATM   15  C6  UNL     1      -6.714   3.150  12.482  1.00  0.00    -0.024 A 
HETATM   16  C7  UNL     1      -6.748   1.886  11.870  1.00  0.00     0.012 A 
HETATM   17  C8  UNL     1      -5.579   1.294  11.390  1.00  0.00     0.002 A 
HETATM   18  C9  UNL     1      -4.362   1.960  11.518  1.00  0.00     0.018 A 
HETATM   19  C10 UNL     1      -4.314   3.221  12.128  1.00  0.00     0.044 A 
HETATM   20  C12 UNL     1      -3.014   3.918  12.259  1.00  0.00     0.261 A 
HETATM   21  O2  UNL     1      -2.008   3.400  11.781  1.00  0.00    -0.267 OA
ENDBRANCH   6   7
ENDBRANCH   5   6
ENDBRANCH   3   5
ENDBRANCH   2   3
ENDBRANCH   1   2
BRANCH   1  22
HETATM   22  C17 UNL     1       1.272   8.946  15.398  1.00  0.00     0.271 C 
BRANCH  22  23
HETATM   23  N3  UNL     1       0.911   9.756  14.236  1.00  0.00     0.085 N 
HETATM   24  H18 UNL     1       1.250  10.711  14.367  1.00  0.00     0.315 HD
BRANCH  23  25
HETATM   25  C18 UNL     1       1.491   9.202  13.005  1.00  0.00     0.289 C 
BRANCH  25  26
HETATM   26  C19 UNL     1       0.434   8.438  12.187  1.00  0.00     0.165 C 
BRANCH  26  27
HETATM   27  N4  UNL     1       1.026   7.743  11.044  1.00  0.00    -0.278 N 
HETATM   28  C20 UNL     1       1.780   6.600  11.307  1.00  0.00     0.261 C 
HETATM   29  O3  UNL     1       1.948   6.137  12.433  1.00  0.00    -0.267 OA
HETATM   30  C21 UNL     1       2.388   5.915  10.144  1.00  0.00     0.044 A 
HETATM   31  C22 UNL     1       3.221   4.807  10.352  1.00  0.00     0.018 A 
HETATM   32  C30 UNL     1       2.125   6.379   8.850  1.00  0.00     0.005 A 
HETATM   33  C23 UNL     1       3.800   4.157   9.266  1.00  0.00     0.002 A 
HETATM   34  C24 UNL     1       3.546   4.609   7.971  1.00  0.00     0.012 A 
HETATM   35  C25 UNL     1       2.711   5.715   7.746  1.00  0.00    -0.024 A 
HETATM   36  C26 UNL     1       2.445   6.173   6.446  1.00  0.00     0.012 A 
HETATM   37  C27 UNL     1       1.609   7.269   6.232  1.00  0.00     0.002 A 
HETATM   38  C28 UNL     1       1.031   7.922   7.317  1.00  0.00     0.018 A 
HETATM   39  C29 UNL     1       1.292   7.479   8.622  1.00  0.00     0.044 A 
HETATM   40  C31 UNL     1       0.676   8.185   9.768  1.00  0.00     0.261 C 
HETATM   41  O4  UNL     1      -0.109   9.104   9.554  1.00  0.00    -0.267 OA
ENDBRANCH  26  27
ENDBRANCH  25  26
ENDBRANCH  23  25
ENDBRANCH  22  23
ENDBRANCH   1  22
TORSDOF 10
ENDMDL
