MODEL 1
REMARK minimizedAffinity -7.32367754
REMARK CNNscore 0.29465276
REMARK CNNaffinity 7.30885124
REMARK  11 active torsions:
REMARK  status: ('A' for Active; 'I' for Inactive)
REMARK    1  A    between atoms: C13_13  and  S1_14 
REMARK    2  A    between atoms: C25_30  and  O5_31 
REMARK    3  A    between atoms: C31_37  and  C32_38 
REMARK    4  A    between atoms: C32_38  and  O6_39 
REMARK    5  A    between atoms: C40_47  and  C41_48 
REMARK    6  A    between atoms: C40_47  and  N1_59 
REMARK    7  A    between atoms: C41_48  and  C42_49 
REMARK    8  A    between atoms: C42_49  and  C43_50 
REMARK    9  A    between atoms: C42_49  and  C44_52 
REMARK   10  A    between atoms: C43_50  and  O7_51 
REMARK   11  A    between atoms: C44_52  and  C45_53 
REMARK       I    between atoms: C51_61  and  N2_62 
REMARK       I    between atoms: C51_61  and  N3_63 
ROOT
HETATM    1  C1  UNL     1       7.527  12.498  17.712  1.00  0.00     0.011 C 
HETATM    2  C2  UNL     1       8.422  13.698  17.422  1.00  0.00    -0.009 C 
HETATM    3  C3  UNL     1       7.564  14.913  17.035  1.00  0.00     0.009 C 
HETATM    4  C4  UNL     1       8.423  16.091  16.587  1.00  0.00     0.039 C 
HETATM    5  C5  UNL     1       9.606  16.348  17.480  1.00  0.00    -0.049 C 
HETATM    6  C6  UNL     1      10.101  17.647  17.638  1.00  0.00     0.044 C 
HETATM    7  C7  UNL     1      11.144  17.886  18.536  1.00  0.00     0.073 C 
HETATM    8  C8  UNL     1      11.884  16.832  19.058  1.00  0.00     0.037 C 
HETATM    9  C9  UNL     1      11.415  15.534  18.891  1.00  0.00     0.011 C 
HETATM   10  C10 UNL     1      10.209  15.305  18.203  1.00  0.00    -0.046 C 
HETATM   11  C11 UNL     1       9.407  14.040  18.566  1.00  0.00     0.037 C 
HETATM   12  C12 UNL     1       8.779  14.397  19.953  1.00  0.00     0.126 C 
HETATM   13  C13 UNL     1       8.233  13.347  20.922  1.00  0.00     0.153 C 
HETATM   14  C14 UNL     1       7.519  13.917  22.234  1.00  0.00     0.053 C 
HETATM   15  C15 UNL     1       6.250  13.055  22.453  1.00  0.00    -0.013 C 
HETATM   16  C16 UNL     1       5.055  13.548  22.841  1.00  0.00    -0.050 C 
HETATM   17  C17 UNL     1       4.971  14.965  23.323  1.00  0.00     0.043 C 
HETATM   18  C18 UNL     1       5.659  15.830  22.263  1.00  0.00     0.014 C 
HETATM   19  C19 UNL     1       5.035  15.671  20.824  1.00  0.00     0.039 C 
HETATM   20  C20 UNL     1       3.649  14.964  20.738  1.00  0.00     0.130 C 
HETATM   21  O4  UNL     1       3.860  13.554  20.887  1.00  0.00    -0.371 OA
HETATM   22  C21 UNL     1       3.758  13.072  22.244  1.00  0.00     0.185 C 
HETATM   23  C22 UNL     1       3.322  11.616  22.205  1.00  0.00    -0.006 A 
HETATM   24  C23 UNL     1       3.931  10.625  22.988  1.00  0.00     0.014 A 
HETATM   25  C24 UNL     1       3.450   9.312  22.974  1.00  0.00     0.037 A 
HETATM   26  C25 UNL     1       2.348   8.981  22.192  1.00  0.00     0.067 A 
HETATM   27  C26 UNL     1       1.705   9.939  21.416  1.00  0.00     0.057 A 
HETATM   28  C27 UNL     1       2.181  11.252  21.425  1.00  0.00     0.029 A 
HETATM   29  C28 UNL     1       1.521  12.250  20.623  1.00  0.00    -0.066 C 
HETATM   30  C29 UNL     1       1.303  13.265  20.017  1.00  0.00    -0.101 C 
HETATM   31  C30 UNL     1       1.421  14.615  19.435  1.00  0.00     0.103 C 
HETATM   32  C31 UNL     1       2.888  15.166  19.389  1.00  0.00     0.049 C 
HETATM   33  C33 UNL     1       7.195  15.488  22.402  1.00  0.00     0.100 C 
HETATM   34  C34 UNL     1       8.172  16.578  21.950  1.00  0.00    -0.040 A 
HETATM   35  C35 UNL     1       9.490  16.566  22.436  1.00  0.00     0.009 A 
HETATM   36  C36 UNL     1      10.439  17.504  21.997  1.00  0.00     0.012 A 
HETATM   37  C37 UNL     1      10.108  18.504  21.063  1.00  0.00    -0.003 A 
HETATM   38  C38 UNL     1       8.771  18.555  20.637  1.00  0.00     0.012 A 
HETATM   39  C39 UNL     1       7.824  17.616  21.075  1.00  0.00     0.009 A 
HETATM   40  C40 UNL     1      11.205  19.412  20.420  1.00  0.00     0.171 C 
HETATM   41  O8  UNL     1      11.302  19.183  18.955  1.00  0.00    -0.316 OA
HETATM   42 NA1  UNL     1       7.680  16.446  20.478  1.00  0.00    -0.240 Na
ENDROOT
BRANCH  40  43
HETATM   43  C41 UNL     1      10.790  20.927  20.509  1.00  0.00     0.074 C 
BRANCH  43  44
HETATM   44  C42 UNL     1       9.600  21.313  21.422  1.00  0.00     0.018 C 
BRANCH  44  45
HETATM   45  C43 UNL     1       8.802  22.538  20.964  1.00  0.00     0.169 C 
BRANCH  45  46
HETATM   46  O7  UNL     1       9.632  23.652  20.689  1.00  0.00    -0.400 OA
HETATM   47  H45 UNL     1       9.341  24.015  19.830  1.00  0.00     0.209 HD
ENDBRANCH  45  46
ENDBRANCH  44  45
BRANCH  44  48
HETATM   48  C44 UNL     1      10.029  21.414  22.910  1.00  0.00     0.045 C 
BRANCH  48  49
HETATM   49  C45 UNL     1       9.523  20.371  23.878  1.00  0.00    -0.058 A 
HETATM   50  C46 UNL     1      10.394  19.726  24.764  1.00  0.00     0.007 A 
HETATM   51  C47 UNL     1       9.915  18.772  25.666  1.00  0.00     0.001 A 
HETATM   52  C48 UNL     1       8.559  18.456  25.696  1.00  0.00     0.000 A 
HETATM   53  C49 UNL     1       7.680  19.091  24.821  1.00  0.00     0.001 A 
HETATM   54  C50 UNL     1       8.158  20.043  23.919  1.00  0.00     0.007 A 
ENDBRANCH  48  49
ENDBRANCH  44  48
ENDBRANCH  43  44
ENDBRANCH  40  43
BRANCH  40  55
HETATM   55  N1  UNL     1      12.480  19.301  21.166  1.00  0.00    -0.336 N 
HETATM   56  C51 UNL     1      13.578  19.725  20.667  1.00  0.00     0.124 C 
HETATM   57  N2  UNL     1      14.704  19.649  21.407  1.00  0.00    -0.279 NA
HETATM   58  N3  UNL     1      13.809  20.309  19.473  1.00  0.00    -0.279 NA
HETATM   59  H53 UNL     1      15.516  19.301  20.916  1.00  0.00     0.126 HD
HETATM   60  H54 UNL     1      14.529  19.108  22.248  1.00  0.00     0.126 HD
HETATM   61  H55 UNL     1      13.053  20.179  18.805  1.00  0.00     0.126 HD
HETATM   62  H56 UNL     1      14.718  20.163  19.059  1.00  0.00     0.126 HD
ATOM     63  H1  UNL     1      12.483  18.879  22.095  1.00  0.00     0.165 HD
ENDBRANCH  40  55
BRANCH  13  64
HETATM   64  S1  UNL     1       9.560  12.205  21.464  1.00  0.00     0.108 S 
HETATM   65  O1  UNL     1       9.089  11.708  22.756  1.00  0.00    -0.595 OA
HETATM   66  O2  UNL     1      10.760  13.036  21.531  1.00  0.00    -0.595 OA
HETATM   67  O3  UNL     1       9.612  11.193  20.411  1.00  0.00    -0.595 OA
ENDBRANCH  13  64
BRANCH  32  68
HETATM   68  C32 UNL     1       3.646  14.613  18.171  1.00  0.00     0.172 C 
BRANCH  68  69
HETATM   69  O6  UNL     1       3.005  14.884  16.937  1.00  0.00    -0.400 OA
HETATM   70  H34 UNL     1       2.048  14.711  17.068  1.00  0.00     0.209 HD
ENDBRANCH  68  69
ENDBRANCH  32  68
BRANCH  26  71
HETATM   71  O5  UNL     1       1.917   7.685  22.216  1.00  0.00    -0.361 OA
HETATM   72  H27 UNL     1       1.176   7.599  21.596  1.00  0.00     0.217 HD
ENDBRANCH  26  71
TORSDOF 11
ENDMDL
