MODEL 1
REMARK minimizedAffinity -8.25803566
REMARK CNNscore 0.536865652
REMARK CNNaffinity 7.26791573
REMARK  7 active torsions:
REMARK  status: ('A' for Active; 'I' for Inactive)
REMARK    1  A    between atoms: C2_2  and  C30_32 
REMARK    2  A    between atoms: C3_3  and  C4_4 
REMARK    3  A    between atoms: C4_4  and  O1_5 
REMARK    4  A    between atoms: C4_4  and  C5_6 
REMARK    5  A    between atoms: C5_6  and  C6_7 
REMARK    6  A    between atoms: C6_7  and  C8_9 
REMARK    7  A    between atoms: C30_32  and  O4_34 
ROOT
HETATM    1  C8  UNL     1      -0.268   7.676  13.741  1.00  0.00    -0.002 C 
HETATM    2  C9  UNL     1      -0.541   8.929  12.874  1.00  0.00     0.006 C 
HETATM    3  C10 UNL     1      -2.058   8.956  12.596  1.00  0.00     0.011 C 
HETATM    4  C11 UNL     1      -2.671   7.948  13.593  1.00  0.00    -0.032 C 
HETATM    5  C12 UNL     1      -2.840   8.707  14.948  1.00  0.00     0.016 C 
HETATM    6  C13 UNL     1      -4.029   7.340  13.155  1.00  0.00     0.004 C 
HETATM    7  C14 UNL     1      -5.219   8.306  13.277  1.00  0.00     0.007 C 
HETATM    8  C15 UNL     1      -6.473   7.655  12.703  1.00  0.00     0.007 C 
HETATM    9  C16 UNL     1      -6.938   6.490  13.589  1.00  0.00     0.010 C 
HETATM   10  C17 UNL     1      -8.179   5.706  13.049  1.00  0.00     0.018 C 
HETATM   11  C18 UNL     1      -9.472   6.360  13.569  1.00  0.00     0.023 C 
HETATM   12  C19 UNL     1      -8.249   5.660  11.511  1.00  0.00     0.023 C 
HETATM   13  C20 UNL     1      -8.172   4.257  13.567  1.00  0.00     0.135 C 
HETATM   14  O2  UNL     1      -8.738   3.346  12.957  1.00  0.00    -0.297 OA
HETATM   15  C21 UNL     1      -7.563   3.971  14.922  1.00  0.00     0.080 C 
HETATM   16  C22 UNL     1      -6.236   4.677  15.168  1.00  0.00     0.018 C 
HETATM   17  C23 UNL     1      -5.810   5.540  13.995  1.00  0.00    -0.026 A 
HETATM   18  C24 UNL     1      -4.924   4.904  12.960  1.00  0.00     0.021 A 
HETATM   19  C25 UNL     1      -4.328   5.987  13.856  1.00  0.00    -0.027 A 
HETATM   20  C26 UNL     1      -3.344   5.531  14.943  1.00  0.00     0.011 C 
HETATM   21  C27 UNL     1      -1.853   5.865  14.751  1.00  0.00     0.011 C 
HETATM   22  C28 UNL     1      -1.567   6.826  13.592  1.00  0.00    -0.032 C 
HETATM   23  C29 UNL     1      -1.527   5.993  12.284  1.00  0.00     0.016 C 
ENDROOT
BRANCH   1  24
HETATM   24  C6  UNL     1       1.155   7.048  13.683  1.00  0.00    -0.011 C 
HETATM   25  C7  UNL     1       1.843   7.227  15.050  1.00  0.00     0.010 C 
BRANCH  24  26
HETATM   26  C5  UNL     1       2.153   7.365  12.539  1.00  0.00     0.040 C 
BRANCH  26  27
HETATM   27  C4  UNL     1       3.564   7.873  12.865  1.00  0.00     0.142 C 
BRANCH  27  28
HETATM   28  C3  UNL     1       4.561   7.333  11.873  1.00  0.00     0.018 C 
HETATM   29  C2  UNL     1       5.834   6.947  12.097  1.00  0.00     0.010 C 
HETATM   30  C1  UNL     1       6.555   7.001  13.412  1.00  0.00     0.055 C 
BRANCH  29  31
HETATM   31  C30 UNL     1       6.662   6.398  10.987  1.00  0.00     0.171 C 
HETATM   32  O3  UNL     1       7.372   7.055  10.245  1.00  0.00    -0.646 OA
BRANCH  31  33
HETATM   33  O4  UNL     1       6.591   5.064  10.861  1.00  0.00    -0.773 OA
HETATM   34  H46 UNL     1       7.181   4.869  10.103  1.00  0.00     0.167 HD
ENDBRANCH  31  33
ENDBRANCH  29  31
ENDBRANCH  27  28
BRANCH  27  35
HETATM   35  O1  UNL     1       3.971   7.421  14.151  1.00  0.00    -0.392 OA
HETATM   36  H6  UNL     1       4.930   7.559  14.218  1.00  0.00     0.210 HD
ENDBRANCH  27  35
ENDBRANCH  26  27
ENDBRANCH  24  26
ENDBRANCH   1  24
TORSDOF 7
ENDMDL
