MODEL 1
REMARK minimizedAffinity -8.59103775
REMARK CNNscore 0.666491985
REMARK CNNaffinity 5.69310141
REMARK  11 active torsions:
REMARK  status: ('A' for Active; 'I' for Inactive)
REMARK    1  A    between atoms: C2_2  and  O1_3 
REMARK    2  A    between atoms: C2_2  and  C3_4 
REMARK    3  A    between atoms: C4_5  and  C5_6 
REMARK    4  A    between atoms: C5_6  and  O2_7 
REMARK    5  A    between atoms: C9_11  and  O3_12 
REMARK    6  A    between atoms: O3_12  and  C10_13 
REMARK    7  A    between atoms: C11_15  and  C12_16 
REMARK    8  A    between atoms: C12_16  and  O5_17 
REMARK    9  A    between atoms: C13_18  and  O6_19 
REMARK   10  A    between atoms: C14_20  and  O7_21 
REMARK   11  A    between atoms: C15_22  and  O8_23 
ROOT
HETATM    1  C5  UNL     1      -7.812   5.657  14.050  1.00  0.00     0.086 C 
HETATM    2  C6  UNL     1      -7.280   4.783  12.852  1.00  0.00     0.023 C 
HETATM    3  C7  UNL     1      -8.104   3.510  12.597  1.00  0.00     0.013 C 
HETATM    4  C8  UNL     1      -5.813   4.389  13.062  1.00  0.00     0.039 C 
HETATM    5  C9  UNL     1      -4.892   5.611  13.051  1.00  0.00     0.126 C 
HETATM    6  C16 UNL     1      -5.612   6.893  13.497  1.00  0.00     0.044 C 
HETATM    7  C17 UNL     1      -6.695   6.675  14.586  1.00  0.00    -0.010 C 
HETATM    8  C18 UNL     1      -6.021   6.171  15.889  1.00  0.00     0.018 C 
HETATM    9  C19 UNL     1      -7.262   8.076  14.938  1.00  0.00     0.018 C 
ENDROOT
BRANCH   5  10
HETATM   10  O3  UNL     1      -3.752   5.422  13.897  1.00  0.00    -0.353 OA
BRANCH  10  11
HETATM   11  C10 UNL     1      -2.889   6.561  13.986  1.00  0.00     0.292 C 
HETATM   12  O4  UNL     1      -2.168   6.829  12.785  1.00  0.00    -0.348 OA
HETATM   13  C11 UNL     1      -0.856   6.243  12.668  1.00  0.00     0.179 C 
HETATM   14  C13 UNL     1       0.061   6.645  13.848  1.00  0.00     0.180 C 
HETATM   15  C14 UNL     1      -0.729   7.195  15.039  1.00  0.00     0.183 C 
HETATM   16  C15 UNL     1      -1.989   6.364  15.222  1.00  0.00     0.204 C 
BRANCH  13  17
HETATM   17  C12 UNL     1      -0.918   4.731  12.383  1.00  0.00     0.198 C 
BRANCH  17  18
HETATM   18  O5  UNL     1      -0.362   4.460  11.093  1.00  0.00    -0.398 OA
HETATM   19  H20 UNL     1      -0.671   3.576  10.831  1.00  0.00     0.209 HD
ENDBRANCH  17  18
ENDBRANCH  13  17
BRANCH  14  20
HETATM   20  O6  UNL     1       0.867   5.546  14.297  1.00  0.00    -0.390 OA
HETATM   21  H22 UNL     1       1.183   5.820  15.186  1.00  0.00     0.210 HD
ENDBRANCH  14  20
BRANCH  15  22
HETATM   22  O7  UNL     1       0.088   7.124  16.223  1.00  0.00    -0.390 OA
HETATM   23  H24 UNL     1      -0.542   7.244  16.964  1.00  0.00     0.210 HD
ENDBRANCH  15  22
BRANCH  16  24
HETATM   24  O8  UNL     1      -2.658   6.768  16.431  1.00  0.00    -0.388 OA
HETATM   25  H26 UNL     1      -3.448   6.199  16.497  1.00  0.00     0.210 HD
ENDBRANCH  16  24
ENDBRANCH  10  11
ENDBRANCH   5  10
BRANCH   1  26
HETATM   26  C4  UNL     1      -9.138   6.347  13.742  1.00  0.00     0.010 C 
HETATM   27  C3  UNL     1     -10.086   6.793  14.589  1.00  0.00     0.003 C 
BRANCH  27  28
HETATM   28  C2  UNL     1     -11.376   7.478  14.212  1.00  0.00     0.136 C 
HETATM   29  C1  UNL     1     -12.568   6.541  14.361  1.00  0.00     0.043 C 
BRANCH  28  30
HETATM   30  O1  UNL     1     -11.331   7.955  12.873  1.00  0.00    -0.392 OA
HETATM   31  H5  UNL     1     -11.275   7.176  12.294  1.00  0.00     0.210 HD
ENDBRANCH  28  30
ENDBRANCH  27  28
ENDBRANCH   1  26
BRANCH   1  32
HETATM   32  O2  UNL     1      -8.134   4.765  15.131  1.00  0.00    -0.385 OA
HETATM   33  H8  UNL     1      -8.949   4.289  14.892  1.00  0.00     0.211 HD
ENDBRANCH   1  32
TORSDOF 11
ENDMDL
