MODEL 1
REMARK minimizedAffinity -7.61964464
REMARK CNNscore 0.80565089
REMARK CNNaffinity 7.26735306
REMARK  15 active torsions:
REMARK  status: ('A' for Active; 'I' for Inactive)
REMARK    1  A    between atoms: O1_2  and  C2_3 
REMARK    2  A    between atoms: C3_4  and  O2_5 
REMARK    3  A    between atoms: C5_7  and  O3_8 
REMARK    4  A    between atoms: O3_8  and  C6_9 
REMARK    5  A    between atoms: C12_15  and  O4_16 
REMARK    6  A    between atoms: C13_17  and  O5_18 
REMARK    7  A    between atoms: C15_20  and  O6_21 
REMARK    8  A    between atoms: C21_27  and  C22_28 
REMARK    9  A    between atoms: C22_28  and  C24_30 
REMARK   10  A    between atoms: C25_31  and  C26_32 
REMARK   11  A    between atoms: C26_32  and  C28_34 
REMARK   12  A    between atoms: C28_34  and  C30_36 
REMARK   13  A    between atoms: C30_36  and  O7_37 
REMARK   14  A    between atoms: C32_39  and  O8_40 
REMARK   15  A    between atoms: C35_44  and  O10_45 
ROOT
HETATM    1  C6  UNL     1      -4.528  44.702 -19.351  1.00  0.00     0.154 C 
HETATM    2  C7  UNL     1      -4.466  45.127 -20.819  1.00  0.00     0.035 C 
HETATM    3  C8  UNL     1      -3.433  46.235 -21.066  1.00  0.00     0.012 C 
HETATM    4  C9  UNL     1      -3.643  47.497 -20.165  1.00  0.00    -0.029 C 
HETATM    5  C10 UNL     1      -4.963  48.143 -20.653  1.00  0.00     0.016 C 
HETATM    6  C11 UNL     1      -3.637  46.984 -18.683  1.00  0.00     0.054 C 
HETATM    7  C12 UNL     1      -4.701  45.906 -18.392  1.00  0.00     0.154 C 
HETATM    8  C13 UNL     1      -3.638  48.095 -17.617  1.00  0.00     0.128 C 
HETATM    9  C14 UNL     1      -2.451  49.043 -17.801  1.00  0.00     0.071 C 
HETATM   10  C15 UNL     1      -2.362  49.627 -19.225  1.00  0.00     0.071 C 
HETATM   11  C16 UNL     1      -2.413  48.483 -20.302  1.00  0.00     0.029 C 
HETATM   12  C17 UNL     1      -2.189  49.037 -21.729  1.00  0.00     0.009 C 
HETATM   13  C18 UNL     1      -0.898  49.872 -21.852  1.00  0.00     0.010 C 
HETATM   14  C19 UNL     1      -0.843  51.025 -20.836  1.00  0.00    -0.031 C 
HETATM   15  C20 UNL     1      -1.876  52.107 -21.232  1.00  0.00     0.016 C 
HETATM   16  C21 UNL     1       0.561  51.675 -20.610  1.00  0.00     0.004 C 
HETATM   17  C31 UNL     1       0.421  52.307 -19.197  1.00  0.00     0.038 C 
HETATM   18  C32 UNL     1      -0.706  51.545 -18.479  1.00  0.00     0.126 C 
HETATM   19  C33 UNL     1      -1.039  50.397 -19.426  1.00  0.00     0.058 C 
ENDROOT
BRANCH   1  20
HETATM   20  O3  UNL     1      -5.586  43.747 -19.222  1.00  0.00    -0.351 OA
BRANCH  20  21
HETATM   21  C5  UNL     1      -5.171  42.475 -18.728  1.00  0.00     0.291 C 
HETATM   22  C3  UNL     1      -4.631  42.540 -17.277  1.00  0.00     0.207 C 
HETATM   23  C2  UNL     1      -5.770  42.670 -16.236  1.00  0.00     0.185 C 
HETATM   24  C35 UNL     1      -6.944  41.722 -16.532  1.00  0.00     0.176 C 
HETATM   25  C34 UNL     1      -7.345  41.835 -18.007  1.00  0.00     0.205 C 
HETATM   26  O9  UNL     1      -6.248  41.541 -18.876  1.00  0.00    -0.356 OA
BRANCH  22  27
HETATM   27  O2  UNL     1      -3.816  41.367 -17.061  1.00  0.00    -0.383 OA
HETATM   28  C4  UNL     1      -2.752  41.236 -17.994  1.00  0.00     0.202 C 
ENDBRANCH  22  27
BRANCH  23  29
HETATM   29  O1  UNL     1      -6.295  44.014 -16.188  1.00  0.00    -0.385 OA
HETATM   30  C1  UNL     1      -7.335  44.168 -15.227  1.00  0.00     0.202 C 
ENDBRANCH  23  29
BRANCH  24  31
HETATM   31  O10 UNL     1      -6.549  40.386 -16.181  1.00  0.00    -0.386 OA
HETATM   32  C36 UNL     1      -6.605  40.118 -14.784  1.00  0.00     0.202 C 
ENDBRANCH  24  31
ENDBRANCH  20  21
ENDBRANCH   1  20
BRANCH   7  33
HETATM   33  O4  UNL     1      -6.025  46.439 -18.450  1.00  0.00    -0.393 OA
HETATM   34  H20 UNL     1      -5.979  47.364 -18.125  1.00  0.00     0.210 HD
ENDBRANCH   7  33
BRANCH   8  35
HETATM   35  O5  UNL     1      -4.865  48.824 -17.645  1.00  0.00    -0.395 OA
HETATM   36  H22 UNL     1      -4.839  49.445 -16.887  1.00  0.00     0.210 HD
ENDBRANCH   8  35
BRANCH  10  37
HETATM   37  O6  UNL     1      -3.440  50.546 -19.369  1.00  0.00    -0.389 OA
HETATM   38  H25 UNL     1      -4.240  50.126 -19.002  1.00  0.00     0.210 HD
ENDBRANCH  10  37
BRANCH  18  39
HETATM   39  O8  UNL     1      -0.244  51.051 -17.226  1.00  0.00    -0.395 OA
HETATM   40  H55 UNL     1       0.013  51.828 -16.700  1.00  0.00     0.210 HD
ENDBRANCH  18  39
BRANCH  16  41
HETATM   41  C22 UNL     1       1.117  52.683 -21.650  1.00  0.00     0.009 C 
HETATM   42  C23 UNL     1       1.126  54.131 -21.145  1.00  0.00     0.014 C 
BRANCH  41  43
HETATM   43  C24 UNL     1       0.376  52.542 -22.974  1.00  0.00    -0.026 C 
HETATM   44  C25 UNL     1       0.865  52.768 -24.206  1.00  0.00    -0.026 C 
BRANCH  44  45
HETATM   45  C26 UNL     1       0.111  52.640 -25.523  1.00  0.00     0.009 C 
HETATM   46  C27 UNL     1      -0.046  53.966 -26.278  1.00  0.00     0.014 C 
BRANCH  45  47
HETATM   47  C28 UNL     1       0.713  51.481 -26.375  1.00  0.00     0.012 C 
HETATM   48  C29 UNL     1       2.241  51.384 -26.285  1.00  0.00     0.012 C 
BRANCH  47  49
HETATM   49  C30 UNL     1       0.250  51.509 -27.844  1.00  0.00     0.168 C 
BRANCH  49  50
HETATM   50  O7  UNL     1      -1.153  51.342 -27.984  1.00  0.00    -0.400 OA
HETATM   51  H51 UNL     1      -1.590  52.144 -27.639  1.00  0.00     0.209 HD
ENDBRANCH  49  50
ENDBRANCH  47  49
ENDBRANCH  45  47
ENDBRANCH  44  45
ENDBRANCH  41  43
ENDBRANCH  16  41
TORSDOF 15
ENDMDL
