MODEL 1
REMARK minimizedAffinity -9.48828316
REMARK  4 active torsions:
REMARK  status: ('A' for Active; 'I' for Inactive)
REMARK    1  A    between atoms: C4_4  and  C5_5 
REMARK    2  A    between atoms: C5_5  and  C6_6 
REMARK    3  A    between atoms: C6_6  and  C7_7 
REMARK    4  A    between atoms: C7_7  and  C9_9 
ROOT
HETATM    1  C9  UNL     1      -1.571  52.546 -26.183  1.00  0.00    -0.002 C 
HETATM    2  C10 UNL     1      -2.376  52.160 -27.456  1.00  0.00     0.006 C 
HETATM    3  C11 UNL     1      -3.135  50.845 -27.132  1.00  0.00     0.011 C 
HETATM    4  C12 UNL     1      -3.005  50.678 -25.605  1.00  0.00    -0.032 C 
HETATM    5  C13 UNL     1      -4.121  51.577 -24.980  1.00  0.00     0.016 C 
HETATM    6  C14 UNL     1      -3.138  49.230 -25.017  1.00  0.00     0.004 C 
HETATM    7  C15 UNL     1      -4.451  48.530 -25.409  1.00  0.00     0.007 C 
HETATM    8  C16 UNL     1      -5.476  48.213 -24.317  1.00  0.00     0.007 C 
HETATM    9  C17 UNL     1      -5.393  49.057 -23.035  1.00  0.00     0.010 C 
HETATM   10  C18 UNL     1      -6.412  48.576 -21.941  1.00  0.00     0.018 C 
HETATM   11  C19 UNL     1      -7.863  48.771 -22.426  1.00  0.00     0.023 C 
HETATM   12  C20 UNL     1      -6.247  47.098 -21.541  1.00  0.00     0.023 C 
HETATM   13  C21 UNL     1      -6.195  49.432 -20.685  1.00  0.00     0.135 C 
HETATM   14  O1  UNL     1      -7.099  50.045 -20.125  1.00  0.00    -0.297 OA
HETATM   15  C22 UNL     1      -4.790  49.477 -20.141  1.00  0.00     0.080 C 
HETATM   16  C23 UNL     1      -3.864  49.999 -21.225  1.00  0.00     0.018 C 
HETATM   17  C24 UNL     1      -3.956  49.162 -22.492  1.00  0.00    -0.026 A 
HETATM   18  C25 UNL     1      -3.009  48.000 -22.678  1.00  0.00     0.021 A 
HETATM   19  C26 UNL     1      -2.798  49.253 -23.506  1.00  0.00    -0.027 A 
HETATM   20  C27 UNL     1      -1.471  49.969 -23.181  1.00  0.00     0.011 C 
HETATM   21  C28 UNL     1      -1.283  51.326 -23.878  1.00  0.00     0.011 C 
HETATM   22  C29 UNL     1      -1.533  51.205 -25.388  1.00  0.00    -0.032 C 
HETATM   23  C30 UNL     1      -0.428  50.283 -25.989  1.00  0.00     0.016 C 
ENDROOT
BRANCH   1  24
HETATM   24  C7  UNL     1      -0.231  53.314 -26.397  1.00  0.00    -0.014 C 
HETATM   25  C8  UNL     1      -0.158  54.162 -27.672  1.00  0.00     0.010 C 
BRANCH  24  26
HETATM   26  C6  UNL     1       0.061  54.200 -25.156  1.00  0.00     0.008 C 
BRANCH  26  27
HETATM   27  C5  UNL     1       1.110  53.610 -24.206  1.00  0.00     0.028 C 
BRANCH  27  28
HETATM   28  C4  UNL     1       0.933  54.125 -22.804  1.00  0.00    -0.025 C 
HETATM   29  C2  UNL     1       1.018  53.420 -21.658  1.00  0.00    -0.091 C 
HETATM   30  C1  UNL     1       1.269  51.934 -21.559  1.00  0.00     0.042 C 
HETATM   31  C3  UNL     1       0.850  54.104 -20.327  1.00  0.00     0.042 C 
ENDBRANCH  27  28
ENDBRANCH  26  27
ENDBRANCH  24  26
ENDBRANCH   1  24
TORSDOF 4
ENDMDL
