MODEL 1
REMARK minimizedAffinity -7.96701097
REMARK CNNscore 0.59166193
REMARK CNNaffinity 6.49821663
REMARK  4 active torsions:
REMARK  status: ('A' for Active; 'I' for Inactive)
REMARK    1  A    between atoms: C4_4  and  O1_5 
REMARK    2  A    between atoms: C4_4  and  C5_6 
REMARK    3  A    between atoms: C5_6  and  C6_7 
REMARK    4  A    between atoms: C6_7  and  C8_9 
ROOT
HETATM    1  C8  UNL     1       5.540  56.055  -7.611  1.00  0.00    -0.001 C 
HETATM    2  C9  UNL     1       6.284  55.305  -8.747  1.00  0.00     0.007 C 
HETATM    3  C10 UNL     1       5.190  54.637  -9.617  1.00  0.00     0.015 C 
HETATM    4  C11 UNL     1       3.850  55.225  -9.108  1.00  0.00    -0.013 C 
HETATM    5  C12 UNL     1       3.649  56.587  -9.853  1.00  0.00     0.021 C 
HETATM    6  C13 UNL     1       2.559  54.441  -9.349  1.00  0.00    -0.070 C 
HETATM    7  C14 UNL     1       2.347  53.772 -10.493  1.00  0.00    -0.022 C 
HETATM    8  C15 UNL     1       1.069  53.089 -10.846  1.00  0.00     0.034 C 
HETATM    9  C16 UNL     1       0.060  52.912  -9.682  1.00  0.00     0.013 C 
HETATM   10  C17 UNL     1      -1.353  52.441 -10.191  1.00  0.00     0.018 C 
HETATM   11  C18 UNL     1      -1.905  51.347  -9.242  1.00  0.00     0.023 C 
HETATM   12  C19 UNL     1      -1.356  51.816 -11.607  1.00  0.00     0.023 C 
HETATM   13  C20 UNL     1      -2.344  53.613 -10.226  1.00  0.00     0.135 C 
HETATM   14  O2  UNL     1      -3.565  53.425 -10.184  1.00  0.00    -0.297 OA
HETATM   15  C21 UNL     1      -1.812  55.017 -10.421  1.00  0.00     0.080 C 
HETATM   16  C22 UNL     1      -0.574  55.368  -9.594  1.00  0.00     0.017 C 
HETATM   17  C23 UNL     1       0.019  54.201  -8.771  1.00  0.00    -0.031 C 
HETATM   18  C24 UNL     1      -0.870  53.979  -7.514  1.00  0.00     0.016 C 
HETATM   19  C25 UNL     1       1.487  54.510  -8.255  1.00  0.00     0.024 C 
HETATM   20  C26 UNL     1       1.618  55.802  -7.401  1.00  0.00     0.010 C 
HETATM   21  C27 UNL     1       3.038  56.116  -6.868  1.00  0.00     0.011 C 
HETATM   22  C28 UNL     1       4.160  55.330  -7.567  1.00  0.00    -0.029 C 
HETATM   23  C29 UNL     1       4.302  53.914  -6.914  1.00  0.00     0.016 C 
ENDROOT
BRANCH   1  24
HETATM   24  C6  UNL     1       6.367  56.380  -6.328  1.00  0.00    -0.008 C 
HETATM   25  C7  UNL     1       6.157  57.865  -5.976  1.00  0.00     0.010 C 
BRANCH  24  26
HETATM   26  C5  UNL     1       7.866  56.008  -6.365  1.00  0.00     0.078 C 
BRANCH  26  27
HETATM   27  C4  UNL     1       8.672  56.201  -5.060  1.00  0.00     0.191 A 
HETATM   28  C3  UNL     1       9.828  55.276  -5.000  1.00  0.00     0.054 A 
HETATM   29  C2  UNL     1      10.977  55.945  -4.928  1.00  0.00     0.015 A 
HETATM   30  C1  UNL     1      12.371  55.461  -4.863  1.00  0.00     0.054 C 
HETATM   31  C30 UNL     1      10.618  57.366  -4.920  1.00  0.00     0.291 A 
HETATM   32  O3  UNL     1       9.267  57.490  -5.002  1.00  0.00    -0.276 OA
HETATM   33  O4  UNL     1      11.407  58.295  -4.865  1.00  0.00    -0.260 OA
BRANCH  27  34
HETATM   34  O1  UNL     1       7.889  55.956  -3.911  1.00  0.00    -0.362 OA
HETATM   35  H5  UNL     1       7.215  56.655  -3.891  1.00  0.00     0.213 HD
ENDBRANCH  27  34
ENDBRANCH  26  27
ENDBRANCH  24  26
ENDBRANCH   1  24
TORSDOF 4
ENDMDL
