MODEL 1
REMARK minimizedAffinity -8.16213322
REMARK  14 active torsions:
REMARK  status: ('A' for Active; 'I' for Inactive)
REMARK    1  A    between atoms: O1_2  and  C2_3 
REMARK    2  A    between atoms: C2_3  and  C3_4 
REMARK    3  A    between atoms: C2_3  and  C24_30 
REMARK    4  A    between atoms: C3_4  and  C5_6 
REMARK    5  A    between atoms: C6_8  and  C8_10 
REMARK    6  A    between atoms: C8_10  and  C9_11 
REMARK    7  A    between atoms: C9_11  and  O3_13 
REMARK    8  A    between atoms: C9_11  and  C11_14 
REMARK    9  A    between atoms: C12_15  and  C13_16 
REMARK   10  A    between atoms: C14_17  and  C16_19 
REMARK   11  A    between atoms: C17_21  and  C18_22 
REMARK   12  A    between atoms: C18_22  and  C19_23 
REMARK   13  A    between atoms: C19_23  and  O6_25 
REMARK   14  A    between atoms: C24_30  and  O7_32 
ROOT
HETATM    1  C9  UNL     1      -3.853  49.190 -23.854  1.00  0.00     0.075 C 
HETATM    2  C10 UNL     1      -2.641  48.293 -23.583  1.00  0.00     0.050 C 
ENDROOT
BRANCH   1   3
HETATM    3  C8  UNL     1      -3.648  50.644 -23.357  1.00  0.00     0.082 C 
BRANCH   3   4
HETATM    4  C6  UNL     1      -2.967  51.576 -24.342  1.00  0.00     0.087 A 
HETATM    5  C5  UNL     1      -1.455  51.471 -24.518  1.00  0.00     0.163 A 
HETATM    6  O2  UNL     1      -2.047  52.491 -23.711  1.00  0.00    -0.369 OA
HETATM    7  C7  UNL     1      -3.835  52.275 -25.350  1.00  0.00     0.049 C 
BRANCH   5   8
HETATM    8  C3  UNL     1      -0.743  51.935 -25.764  1.00  0.00     0.045 C 
HETATM    9  C4  UNL     1       0.356  50.913 -26.097  1.00  0.00     0.015 C 
BRANCH   8  10
HETATM   10  C2  UNL     1      -0.157  53.362 -25.570  1.00  0.00     0.155 C 
BRANCH  10  11
HETATM   11  O1  UNL     1       1.081  53.271 -24.837  1.00  0.00    -0.388 OA
HETATM   12  C1  UNL     1       1.093  54.064 -23.659  1.00  0.00     0.202 C 
ENDBRANCH  10  11
BRANCH  10  13
HETATM   13  C24 UNL     1       0.105  54.077 -26.924  1.00  0.00     0.143 C 
HETATM   14  C25 UNL     1      -0.945  53.732 -27.976  1.00  0.00     0.042 C 
BRANCH  13  15
HETATM   15  O7  UNL     1       0.115  55.499 -26.760  1.00  0.00    -0.393 OA
HETATM   16  H42 UNL     1       0.363  55.887 -27.615  1.00  0.00     0.210 HD
ENDBRANCH  13  15
ENDBRANCH  10  13
ENDBRANCH   8  10
ENDBRANCH   5   8
ENDBRANCH   3   4
ENDBRANCH   1   3
BRANCH   1  17
HETATM   17  O3  UNL     1      -4.966  48.612 -23.158  1.00  0.00    -0.386 OA
HETATM   18  H18 UNL     1      -5.185  47.782 -23.619  1.00  0.00     0.211 HD
ENDBRANCH   1  17
BRANCH   1  19
HETATM   19  C11 UNL     1      -4.277  49.236 -25.311  1.00  0.00     0.010 C 
HETATM   20  C12 UNL     1      -3.845  48.455 -26.317  1.00  0.00    -0.001 C 
BRANCH  20  21
HETATM   21  C13 UNL     1      -4.375  48.565 -27.659  1.00  0.00     0.005 C 
HETATM   22  C14 UNL     1      -5.504  48.003 -28.142  1.00  0.00    -0.055 C 
HETATM   23  C15 UNL     1      -6.422  47.099 -27.362  1.00  0.00     0.046 C 
BRANCH  22  24
HETATM   24  C16 UNL     1      -5.967  48.285 -29.568  1.00  0.00     0.154 C 
HETATM   25  O4  UNL     1      -5.090  47.568 -30.454  1.00  0.00    -0.375 OA
HETATM   26  C17 UNL     1      -5.316  47.877 -31.836  1.00  0.00     0.132 C 
HETATM   27  C20 UNL     1      -6.733  47.440 -32.224  1.00  0.00     0.033 C 
HETATM   28  C21 UNL     1      -7.765  48.108 -31.322  1.00  0.00     0.009 C 
HETATM   29  C22 UNL     1      -7.432  47.875 -29.840  1.00  0.00     0.015 C 
HETATM   30  C23 UNL     1      -8.438  48.613 -28.958  1.00  0.00     0.012 C 
BRANCH  26  31
HETATM   31  C18 UNL     1      -4.249  47.137 -32.641  1.00  0.00     0.141 C 
BRANCH  31  32
HETATM   32  C19 UNL     1      -3.779  47.941 -33.816  1.00  0.00     0.141 C 
HETATM   33  O5  UNL     1      -4.460  48.411 -34.711  1.00  0.00    -0.650 OA
BRANCH  32  34
HETATM   34  O6  UNL     1      -2.445  48.136 -33.799  1.00  0.00    -0.776 OA
HETATM   35  H29 UNL     1      -2.271  48.681 -34.597  1.00  0.00     0.167 HD
ENDBRANCH  32  34
ENDBRANCH  31  32
ENDBRANCH  26  31
ENDBRANCH  22  24
ENDBRANCH  20  21
ENDBRANCH   1  19
TORSDOF 14
ENDMDL
