MODEL 1
REMARK minimizedAffinity -9.4793396
REMARK CNNscore 0.449561059
REMARK CNNaffinity 7.28676748
REMARK  5 active torsions:
REMARK  status: ('A' for Active; 'I' for Inactive)
REMARK    1  A    between atoms: C2_2  and  C4_4 
REMARK    2  A    between atoms: C10_11  and  O2_12 
REMARK    3  A    between atoms: C13_15  and  O3_16 
REMARK    4  A    between atoms: C33_39  and  O6_40 
REMARK    5  A    between atoms: C38_46  and  O8_47 
ROOT
HETATM    1  C4  UNL     1      -1.262  50.551 -18.329  1.00  0.00     0.181 C 
HETATM    2  O1  UNL     1      -0.252  51.457 -17.870  1.00  0.00    -0.370 OA
HETATM    3  C5  UNL     1       0.693  50.894 -16.930  1.00  0.00     0.163 C 
HETATM    4  C6  UNL     1       1.388  52.120 -16.330  1.00  0.00     0.036 C 
HETATM    5  C7  UNL     1       2.200  51.834 -15.071  1.00  0.00     0.016 C 
HETATM    6  C8  UNL     1       1.387  51.083 -13.968  1.00  0.00     0.008 C 
HETATM    7  C9  UNL     1       0.143  51.965 -13.615  1.00  0.00     0.020 C 
HETATM    8  C10 UNL     1       0.891  49.740 -14.607  1.00  0.00     0.103 C 
HETATM    9  C11 UNL     1       0.177  48.864 -13.563  1.00  0.00     0.047 C 
HETATM   10  C12 UNL     1       1.077  48.531 -12.374  1.00  0.00     0.073 C 
HETATM   11  C13 UNL     1       1.591  49.772 -11.618  1.00  0.00     0.180 C 
HETATM   12  O4  UNL     1       0.439  50.353 -10.988  1.00  0.00    -0.320 OA
HETATM   13  C15 UNL     1       0.691  51.518 -10.167  1.00  0.00     0.302 C 
HETATM   14  O5  UNL     1      -0.555  52.217 -10.144  1.00  0.00    -0.346 OA
HETATM   15  C16 UNL     1      -1.118  52.587  -8.882  1.00  0.00     0.064 C 
HETATM   16  C17 UNL     1      -1.207  51.424  -7.888  1.00  0.00     0.046 C 
HETATM   17  C18 UNL     1      -2.568  52.991  -9.225  1.00  0.00     0.046 C 
HETATM   18  C19 UNL     1      -0.410  53.845  -8.356  1.00  0.00     0.060 C 
HETATM   19  C20 UNL     1      -0.762  54.416  -6.963  1.00  0.00     0.023 C 
HETATM   20  C21 UNL     1       0.698  54.904  -6.805  1.00  0.00     0.054 C 
HETATM   21  C22 UNL     1       1.065  56.322  -7.137  1.00  0.00    -0.078 C 
HETATM   22  C23 UNL     1       0.229  57.335  -6.855  1.00  0.00     0.015 C 
HETATM   23  C24 UNL     1       2.447  56.536  -7.723  1.00  0.00     0.073 C 
HETATM   24  C25 UNL     1       2.737  55.663  -8.926  1.00  0.00    -0.044 A 
HETATM   25  C26 UNL     1       3.668  56.071  -9.885  1.00  0.00     0.010 A 
HETATM   26  C27 UNL     1       3.956  55.273 -10.992  1.00  0.00     0.031 A 
HETATM   27  C28 UNL     1       3.262  54.066 -11.125  1.00  0.00     0.044 A 
HETATM   28  N1  UNL     1       3.357  53.106 -12.109  1.00  0.00    -0.357 N 
HETATM   29  C29 UNL     1       2.479  52.093 -11.855  1.00  0.00     0.036 A 
HETATM   30  C30 UNL     1       1.776  52.402 -10.708  1.00  0.00     0.033 A 
HETATM   31  C31 UNL     1       2.314  53.626 -10.195  1.00  0.00     0.013 A 
HETATM   32  C32 UNL     1       2.087  54.412  -9.038  1.00  0.00    -0.003 A 
HETATM   33  C33 UNL     1       1.103  53.854  -7.932  1.00  0.00     0.100 C 
HETATM   34  C34 UNL     1       2.298  50.804 -12.652  1.00  0.00     0.066 C 
HETATM   35  C35 UNL     1       3.721  50.258 -12.980  1.00  0.00     0.029 C 
HETATM   36  C36 UNL     1       0.057  49.994 -15.873  1.00  0.00     0.147 A 
HETATM   37  O7  UNL     1      -0.389  48.718 -16.431  1.00  0.00    -0.360 OA
HETATM   38  C37 UNL     1      -1.406  49.625 -16.015  1.00  0.00     0.194 A 
HETATM   39  C38 UNL     1      -2.197  50.234 -17.126  1.00  0.00     0.183 C 
HETATM   40  H40 UNL     1       3.999  53.149 -12.888  1.00  0.00     0.166 HD
ENDROOT
BRANCH   1  41
HETATM   41  C2  UNL     1      -2.004  51.171 -19.513  1.00  0.00    -0.062 C 
HETATM   42  C1  UNL     1      -3.343  51.163 -19.651  1.00  0.00     0.016 C 
HETATM   43  C3  UNL     1      -1.140  51.853 -20.541  1.00  0.00     0.045 C 
ENDBRANCH   1  41
BRANCH  39  44
HETATM   44  O8  UNL     1      -2.816  51.409 -16.593  1.00  0.00    -0.390 OA
HETATM   45  H47 UNL     1      -2.758  52.099 -17.283  1.00  0.00     0.210 HD
ENDBRANCH  39  44
BRANCH   8  46
HETATM   46  O2  UNL     1       2.024  48.978 -15.054  1.00  0.00    -0.386 OA
HETATM   47  H15 UNL     1       1.663  48.205 -15.530  1.00  0.00     0.210 HD
ENDBRANCH   8  46
BRANCH  11  48
HETATM   48  O3  UNL     1       2.555  49.363 -10.621  1.00  0.00    -0.359 OA
HETATM   49  C14 UNL     1       2.357  48.081 -10.048  1.00  0.00     0.205 C 
ENDBRANCH  11  48
BRANCH  33  50
HETATM   50  O6  UNL     1       1.610  52.626  -7.342  1.00  0.00    -0.384 OA
HETATM   51  H41 UNL     1       2.563  52.791  -7.228  1.00  0.00     0.211 HD
ENDBRANCH  33  50
TORSDOF 5
ENDMDL
