MODEL 1
REMARK minimizedAffinity -8.46756363
REMARK  9 active torsions:
REMARK  status: ('A' for Active; 'I' for Inactive)
REMARK    1  A    between atoms: C2_2  and  O2_4 
REMARK    2  A    between atoms: O2_4  and  C3_5 
REMARK    3  A    between atoms: C3_5  and  C4_6 
REMARK    4  A    between atoms: C4_6  and  C5_7 
REMARK    5  A    between atoms: C5_7  and  C6_8 
REMARK    6  A    between atoms: C20_22  and  C21_23 
REMARK    7  A    between atoms: C21_23  and  C23_25 
REMARK    8  A    between atoms: C23_25  and  C24_26 
REMARK    9  A    between atoms: C24_26  and  C25_27 
ROOT
HETATM    1  C6  UNL     1      -0.825   6.746  12.017  1.00  0.00     0.023 C 
HETATM    2  C7  UNL     1       0.078   7.965  12.346  1.00  0.00    -0.073 C 
HETATM    3  C8  UNL     1       1.429   8.021  12.498  1.00  0.00    -0.085 C 
HETATM    4  C9  UNL     1       2.183   9.323  12.666  1.00  0.00     0.043 C 
HETATM    5  C10 UNL     1       2.363   6.839  12.573  1.00  0.00     0.043 C 
HETATM    6  C11 UNL     1      -0.793   9.197  12.582  1.00  0.00     0.035 C 
HETATM    7  C12 UNL     1      -1.742   8.962  13.766  1.00  0.00     0.010 C 
HETATM    8  C13 UNL     1      -2.601   7.701  13.551  1.00  0.00     0.003 C 
HETATM    9  C14 UNL     1      -1.726   6.406  13.283  1.00  0.00    -0.032 C 
HETATM   10  C15 UNL     1      -0.793   6.006  14.453  1.00  0.00     0.016 C 
HETATM   11  C16 UNL     1      -2.673   5.194  13.018  1.00  0.00     0.011 C 
HETATM   12  C17 UNL     1      -3.886   5.049  13.972  1.00  0.00     0.011 C 
HETATM   13  C18 UNL     1      -4.716   6.346  14.075  1.00  0.00    -0.032 C 
HETATM   14  C19 UNL     1      -5.353   6.592  12.667  1.00  0.00     0.016 C 
HETATM   15  C20 UNL     1      -5.865   6.459  15.139  1.00  0.00    -0.002 C 
HETATM   16  C29 UNL     1      -6.014   8.015  15.274  1.00  0.00     0.006 C 
HETATM   17  C30 UNL     1      -4.735   8.665  14.710  1.00  0.00     0.011 C 
HETATM   18  C31 UNL     1      -3.746   7.495  14.582  1.00  0.00    -0.032 C 
HETATM   19  C32 UNL     1      -3.184   7.273  16.024  1.00  0.00     0.016 C 
ENDROOT
BRANCH  15  20
HETATM   20  C21 UNL     1      -7.255   5.776  14.903  1.00  0.00    -0.014 C 
HETATM   21  C22 UNL     1      -8.263   6.262  15.963  1.00  0.00     0.010 C 
BRANCH  20  22
HETATM   22  C23 UNL     1      -7.168   4.231  14.934  1.00  0.00     0.008 C 
BRANCH  22  23
HETATM   23  C24 UNL     1      -7.604   3.514  13.643  1.00  0.00     0.028 C 
BRANCH  23  24
HETATM   24  C25 UNL     1      -6.689   3.719  12.468  1.00  0.00    -0.025 C 
HETATM   25  C26 UNL     1      -6.125   2.782  11.680  1.00  0.00    -0.091 C 
HETATM   26  C27 UNL     1      -5.234   3.185  10.532  1.00  0.00     0.042 C 
HETATM   27  C28 UNL     1      -6.287   1.295  11.836  1.00  0.00     0.042 C 
ENDBRANCH  23  24
ENDBRANCH  22  23
ENDBRANCH  20  22
ENDBRANCH  15  20
BRANCH   1  28
HETATM   28  C5  UNL     1      -0.204   5.523  11.295  1.00  0.00     0.012 C 
BRANCH  28  29
HETATM   29  C4  UNL     1      -1.189   4.356  11.143  1.00  0.00     0.028 C 
BRANCH  29  30
HETATM   30  C3  UNL     1      -0.714   3.120  11.902  1.00  0.00     0.178 C 
BRANCH  30  31
HETATM   31  O2  UNL     1      -0.095   2.199  10.991  1.00  0.00    -0.322 OA
BRANCH  31  32
HETATM   32  C2  UNL     1      -0.907   1.227  10.491  1.00  0.00     0.254 C 
HETATM   33  C1  UNL     1      -2.137   1.105  11.340  1.00  0.00     0.126 C 
HETATM   34  O1  UNL     1      -0.682   0.546   9.502  1.00  0.00    -0.266 OA
ENDBRANCH  31  32
ENDBRANCH  30  31
ENDBRANCH  29  30
ENDBRANCH  28  29
ENDBRANCH   1  28
TORSDOF 9
ENDMDL
