MODEL 1
REMARK minimizedAffinity -6.74525785
REMARK CNNscore 0.658757746
REMARK CNNaffinity 7.08221483
REMARK  7 active torsions:
REMARK  status: ('A' for Active; 'I' for Inactive)
REMARK    1  A    between atoms: C3_3  and  C5_5 
REMARK    2  A    between atoms: C24_26  and  O3_27 
REMARK    3  A    between atoms: C30_35  and  O6_36 
REMARK    4  A    between atoms: C31_38  and  O8_39 
REMARK    5  A    between atoms: C32_40  and  O9_41 
REMARK    6  A    between atoms: O9_41  and  C33_42 
REMARK    7  A    between atoms: C33_42  and  C34_44 
ROOT
HETATM    1  C5  UNL     1       2.344  51.283 -13.338  1.00  0.00     0.160 C 
HETATM    2  O1  UNL     1       1.283  51.215 -12.381  1.00  0.00    -0.342 OA
HETATM    3  C6  UNL     1       1.748  51.296 -11.021  1.00  0.00     0.196 C 
HETATM    4  C7  UNL     1       0.571  50.752 -10.166  1.00  0.00     0.104 C 
HETATM    5  C8  UNL     1       0.444  51.452  -8.815  1.00  0.00     0.139 C 
HETATM    6  C9  UNL     1       0.415  52.980  -8.958  1.00  0.00     0.065 C 
HETATM    7  C10 UNL     1       0.863  53.416 -10.357  1.00  0.00     0.131 C 
HETATM    8  C11 UNL     1       1.133  54.924 -10.514  1.00  0.00     0.059 C 
HETATM    9  C12 UNL     1       2.057  55.551  -9.499  1.00  0.00    -0.022 C 
HETATM   10  C13 UNL     1       3.345  55.919  -9.658  1.00  0.00    -0.087 C 
HETATM   11  C14 UNL     1       4.111  55.654 -10.934  1.00  0.00     0.043 C 
HETATM   12  C15 UNL     1       4.207  56.598  -8.592  1.00  0.00     0.041 C 
HETATM   13  C16 UNL     1       3.657  56.933  -7.175  1.00  0.00     0.008 C 
HETATM   14  C17 UNL     1       2.671  58.108  -7.214  1.00  0.00     0.014 C 
HETATM   15  C18 UNL     1       3.081  55.746  -6.427  1.00  0.00    -0.022 C 
HETATM   16  C19 UNL     1       3.717  54.573  -6.277  1.00  0.00    -0.003 C 
HETATM   17  C20 UNL     1       3.082  53.416  -5.696  1.00  0.00     0.008 C 
HETATM   18  C21 UNL     1       3.681  52.230  -5.510  1.00  0.00    -0.019 C 
HETATM   19  C22 UNL     1       5.138  51.903  -5.689  1.00  0.00     0.206 C 
HETATM   20  O2  UNL     1       5.330  50.599  -5.085  1.00  0.00    -0.375 OA
HETATM   21  C23 UNL     1       4.197  50.429  -4.194  1.00  0.00     0.194 C 
HETATM   22  C24 UNL     1       4.019  48.965  -3.753  1.00  0.00     0.179 C 
HETATM   23  C25 UNL     1       3.191  48.097  -4.675  1.00  0.00    -0.056 C 
HETATM   24  C26 UNL     1       3.069  46.648  -4.286  1.00  0.00     0.046 C 
HETATM   25  C27 UNL     1       2.565  48.592  -5.760  1.00  0.00    -0.004 C 
HETATM   26  C28 UNL     1       2.649  50.046  -6.164  1.00  0.00     0.150 C 
HETATM   27  C29 UNL     1       1.341  50.494  -6.798  1.00  0.00     0.270 C 
HETATM   28  O4  UNL     1       0.242  50.336  -6.285  1.00  0.00    -0.264 OA
HETATM   29  O5  UNL     1       1.580  51.062  -8.013  1.00  0.00    -0.315 OA
HETATM   30  C30 UNL     1       3.015  50.985  -4.985  1.00  0.00     0.128 C 
HETATM   31  O7  UNL     1       2.026  52.669 -10.703  1.00  0.00    -0.347 OA
HETATM   32  C31 UNL     1       3.053  50.440 -10.820  1.00  0.00     0.210 C 
HETATM   33  C32 UNL     1       3.149  49.334 -11.889  1.00  0.00     0.172 C 
HETATM   34  C37 UNL     1       3.096  49.929 -13.323  1.00  0.00     0.047 C 
HETATM   35  C38 UNL     1       4.507  50.054 -13.908  1.00  0.00     0.015 C 
ENDROOT
BRANCH  32  36
HETATM   36  O8  UNL     1       4.251  51.239 -10.912  1.00  0.00    -0.387 OA
HETATM   37  H42 UNL     1       4.987  50.705 -10.568  1.00  0.00     0.210 HD
ENDBRANCH  32  36
BRANCH   1  38
HETATM   38  C3  UNL     1       1.738  51.613 -14.707  1.00  0.00    -0.059 C 
HETATM   39  C2  UNL     1       2.465  52.157 -15.708  1.00  0.00    -0.026 C 
HETATM   40  C1  UNL     1       1.992  52.529 -17.076  1.00  0.00     0.036 C 
HETATM   41  C4  UNL     1       0.291  51.230 -14.882  1.00  0.00     0.046 C 
ENDBRANCH   1  38
BRANCH  33  42
HETATM   42  O9  UNL     1       2.059  48.404 -11.702  1.00  0.00    -0.312 OA
BRANCH  42  43
HETATM   43  C33 UNL     1       2.122  47.256 -12.432  1.00  0.00     0.262 C 
HETATM   44  O10 UNL     1       3.094  46.513 -12.484  1.00  0.00    -0.265 OA
BRANCH  43  45
HETATM   45  C34 UNL     1       0.853  47.032 -13.229  1.00  0.00     0.077 C 
HETATM   46  C35 UNL     1       1.041  47.371 -14.704  1.00  0.00     0.020 C 
HETATM   47  C36 UNL     1       0.370  45.599 -13.037  1.00  0.00     0.020 C 
ENDBRANCH  43  45
ENDBRANCH  42  43
ENDBRANCH  33  42
BRANCH  30  48
HETATM   48  O6  UNL     1       1.942  51.292  -4.101  1.00  0.00    -0.381 OA
HETATM   49  H40 UNL     1       1.160  50.759  -4.342  1.00  0.00     0.211 HD
ENDBRANCH  30  48
BRANCH  22  50
HETATM   50  O3  UNL     1       5.304  48.361  -3.589  1.00  0.00    -0.389 OA
HETATM   51  H34 UNL     1       5.880  48.807  -4.241  1.00  0.00     0.210 HD
ENDBRANCH  22  50
TORSDOF 7
ENDMDL
