MODEL 1
REMARK minimizedAffinity -8.27390289
REMARK CNNscore 0.731850147
REMARK CNNaffinity 7.29945183
REMARK  9 active torsions:
REMARK  status: ('A' for Active; 'I' for Inactive)
REMARK    1  A    between atoms: C11_11  and  C13_13 
REMARK    2  A    between atoms: C13_13  and  O2_15 
REMARK    3  A    between atoms: C15_17  and  C16_18 
REMARK    4  A    between atoms: C16_18  and  C17_19 
REMARK    5  A    between atoms: C17_19  and  C18_20 
REMARK    6  A    between atoms: C19_21  and  C20_22 
REMARK    7  A    between atoms: C20_22  and  O3_23 
REMARK    8  A    between atoms: O3_23  and  C21_24 
REMARK    9  A    between atoms: C21_24  and  C22_26 
ROOT
HETATM    1  C16 UNL     1      -4.823   6.348  15.734  1.00  0.00     0.014 C 
ENDROOT
BRANCH   1   2
HETATM    2  C15 UNL     1      -4.172   6.906  14.434  1.00  0.00     0.022 C 
HETATM    3  C2  UNL     1      -4.606   8.320  14.041  1.00  0.00    -0.084 C 
HETATM    4  C1  UNL     1      -5.280   9.193  14.810  1.00  0.00     0.014 C 
HETATM    5  C3  UNL     1      -4.158   8.722  12.660  1.00  0.00     0.034 C 
HETATM    6  C4  UNL     1      -2.636   8.637  12.549  1.00  0.00     0.011 C 
HETATM    7  C5  UNL     1      -2.105   7.241  12.951  1.00  0.00     0.012 C 
HETATM    8  C6  UNL     1      -2.583   6.817  14.402  1.00  0.00    -0.032 C 
HETATM    9  C11 UNL     1      -0.583   6.995  12.643  1.00  0.00     0.049 C 
HETATM   10  C7  UNL     1      -1.987   7.715  15.513  1.00  0.00     0.016 C 
HETATM   11  C8  UNL     1      -2.131   5.352  14.653  1.00  0.00     0.010 C 
HETATM   12  C9  UNL     1      -0.654   5.095  14.376  1.00  0.00     0.002 C 
HETATM   13  C10 UNL     1      -0.256   5.514  12.968  1.00  0.00     0.020 C 
HETATM   14  C12 UNL     1      -0.289   7.189  11.135  1.00  0.00     0.026 C 
BRANCH   9  15
HETATM   15  C13 UNL     1       0.354   7.996  13.349  1.00  0.00     0.267 C 
HETATM   16  O1  UNL     1       0.121   9.193  13.465  1.00  0.00    -0.264 OA
BRANCH  15  17
HETATM   17  O2  UNL     1       1.507   7.413  13.776  1.00  0.00    -0.326 OA
HETATM   18  C14 UNL     1       2.392   8.292  14.473  1.00  0.00     0.213 C 
ENDBRANCH  15  17
ENDBRANCH   9  15
ENDBRANCH   1   2
BRANCH   1  19
HETATM   19  C17 UNL     1      -6.106   5.525  15.513  1.00  0.00     0.042 C 
BRANCH  19  20
HETATM   20  C18 UNL     1      -7.360   6.327  15.659  1.00  0.00    -0.024 A 
HETATM   21  C19 UNL     1      -8.406   6.434  14.756  1.00  0.00     0.083 A 
HETATM   22  O5  UNL     1      -9.380   7.249  15.257  1.00  0.00    -0.324 OA
HETATM   23  C28 UNL     1      -8.958   7.677  16.472  1.00  0.00     0.143 A 
HETATM   24  C29 UNL     1      -7.727   7.145  16.766  1.00  0.00     0.034 A 
BRANCH  21  25
HETATM   25  C20 UNL     1      -8.664   5.856  13.412  1.00  0.00     0.244 C 
BRANCH  25  26
HETATM   26  O3  UNL     1      -7.454   5.228  12.967  1.00  0.00    -0.311 OA
BRANCH  26  27
HETATM   27  C21 UNL     1      -7.531   3.897  12.743  1.00  0.00     0.293 C 
HETATM   28  O4  UNL     1      -8.535   3.205  12.811  1.00  0.00    -0.259 OA
BRANCH  27  29
HETATM   29  C22 UNL     1      -6.193   3.360  12.372  1.00  0.00     0.039 A 
HETATM   30  C23 UNL     1      -6.121   2.057  11.857  1.00  0.00     0.019 A 
HETATM   31  C24 UNL     1      -4.888   1.509  11.493  1.00  0.00     0.025 A 
HETATM   32  C25 UNL     1      -3.723   2.260  11.645  1.00  0.00     0.034 A 
HETATM   33 CL1  UNL     1      -2.205   1.586  11.198  1.00  0.00    -0.084 Cl
HETATM   34  C26 UNL     1      -3.781   3.555  12.160  1.00  0.00     0.025 A 
HETATM   35  C27 UNL     1      -5.014   4.105  12.524  1.00  0.00     0.019 A 
ENDBRANCH  27  29
ENDBRANCH  26  27
ENDBRANCH  25  26
ENDBRANCH  21  25
ENDBRANCH  19  20
ENDBRANCH   1  19
TORSDOF 9
ENDMDL
