MODEL 1
REMARK minimizedAffinity -9.60194874
REMARK CNNscore 0.592115223
REMARK CNNaffinity 7.04494858
REMARK  12 active torsions:
REMARK  status: ('A' for Active; 'I' for Inactive)
REMARK    1  A    between atoms: O1_2  and  C2_3 
REMARK    2  A    between atoms: C4_5  and  O2_6 
REMARK    3  A    between atoms: O2_6  and  C5_7 
REMARK    4  A    between atoms: C8_10  and  C9_11 
REMARK    5  A    between atoms: N1_12  and  C10_14 
REMARK    6  A    between atoms: C10_14  and  C11_15 
REMARK    7  A    between atoms: C11_15  and  C12_16 
REMARK    8  A    between atoms: C12_16  and  O3_17 
REMARK    9  A    between atoms: C18_23  and  C19_24 
REMARK   10  A    between atoms: C25_32  and  O6_33 
REMARK   11  A    between atoms: C29_37  and  O7_38 
REMARK   12  A    between atoms: C33_43  and  O9_44 
ROOT
HETATM    1  C5  UNL     1      -5.850   7.306  14.382  1.00  0.00     0.127 C 
HETATM    2  C6  UNL     1      -5.264   7.881  13.108  1.00  0.00     0.033 C 
HETATM    3  C7  UNL     1      -3.956   8.590  13.385  1.00  0.00     0.021 C 
HETATM    4  C8  UNL     1      -2.909   7.759  14.208  1.00  0.00     0.026 C 
HETATM    5  C13 UNL     1      -1.619   7.618  13.274  1.00  0.00     0.009 C 
HETATM    6  C14 UNL     1      -0.767   8.890  13.216  1.00  0.00     0.007 C 
HETATM    7  C15 UNL     1       0.236   8.762  12.087  1.00  0.00     0.013 C 
HETATM    8  C16 UNL     1       1.280   7.665  12.354  1.00  0.00    -0.005 C 
HETATM    9  C17 UNL     1       2.346   8.304  13.299  1.00  0.00     0.019 C 
HETATM   10  C18 UNL     1       2.034   7.213  11.036  1.00  0.00     0.028 C 
HETATM   11  C23 UNL     1       2.228   5.703  11.234  1.00  0.00     0.013 C 
HETATM   12  C24 UNL     1       0.946   5.247  11.916  1.00  0.00     0.040 C 
HETATM   13  C25 UNL     1       0.683   6.332  12.980  1.00  0.00     0.070 C 
HETATM   14  C26 UNL     1      -0.752   6.395  13.624  1.00  0.00     0.026 C 
HETATM   15  C27 UNL     1      -1.574   5.102  13.423  1.00  0.00     0.011 C 
HETATM   16  C28 UNL     1      -3.089   5.285  13.599  1.00  0.00     0.039 C 
HETATM   17  C29 UNL     1      -3.437   6.337  14.667  1.00  0.00     0.073 C 
HETATM   18  C30 UNL     1      -4.944   6.257  15.026  1.00  0.00     0.071 C 
ENDROOT
BRANCH   1  19
HETATM   19  O2  UNL     1      -7.093   6.710  14.015  1.00  0.00    -0.356 OA
BRANCH  19  20
HETATM   20  C4  UNL     1      -8.240   7.532  14.221  1.00  0.00     0.263 C 
HETATM   21  C3  UNL     1      -9.468   6.667  13.969  1.00  0.00     0.095 C 
HETATM   22  C2  UNL     1     -10.760   7.426  14.282  1.00  0.00     0.156 C 
HETATM   23  C33 UNL     1     -10.697   7.992  15.717  1.00  0.00     0.175 C 
HETATM   24  C31 UNL     1      -9.370   8.752  15.962  1.00  0.00     0.151 C 
HETATM   25  O8  UNL     1      -8.224   7.997  15.569  1.00  0.00    -0.354 OA
HETATM   26  C32 UNL     1      -9.324  10.160  15.361  1.00  0.00     0.042 C 
BRANCH  22  27
HETATM   27  O1  UNL     1     -11.825   6.479  14.091  1.00  0.00    -0.388 OA
HETATM   28  C1  UNL     1     -12.907   6.946  13.308  1.00  0.00     0.202 C 
ENDBRANCH  22  27
BRANCH  23  29
HETATM   29  O9  UNL     1     -11.820   8.826  16.017  1.00  0.00    -0.390 OA
HETATM   30  H51 UNL     1     -11.865   9.569  15.381  1.00  0.00     0.210 HD
ENDBRANCH  23  29
ENDBRANCH  19  20
ENDBRANCH   1  19
BRANCH  17  31
HETATM   31  O7  UNL     1      -2.731   5.854  15.838  1.00  0.00    -0.389 OA
HETATM   32  H43 UNL     1      -2.786   6.566  16.506  1.00  0.00     0.210 HD
ENDBRANCH  17  31
BRANCH   4  33
HETATM   33  C9  UNL     1      -2.627   8.659  15.424  1.00  0.00     0.068 C 
HETATM   34  N1  UNL     1      -3.560   9.026  16.238  1.00  0.00    -0.401 N 
ATOM     35  H1  UNL     1      -4.506   8.651  16.190  1.00  0.00     0.158 HD
BRANCH  34  36
HETATM   36  C10 UNL     1      -3.158  10.022  17.235  1.00  0.00     0.121 C 
BRANCH  36  37
HETATM   37  C11 UNL     1      -3.963  11.304  17.030  1.00  0.00     0.045 C 
BRANCH  37  38
HETATM   38  C12 UNL     1      -3.619  11.978  15.709  1.00  0.00     0.165 C 
BRANCH  38  39
HETATM   39  O3  UNL     1      -4.655  12.873  15.306  1.00  0.00    -0.401 OA
HETATM   40  H20 UNL     1      -4.770  13.513  16.029  1.00  0.00     0.209 HD
ENDBRANCH  38  39
ENDBRANCH  37  38
ENDBRANCH  36  37
ENDBRANCH  34  36
ENDBRANCH   4  33
BRANCH  13  41
HETATM   41  O6  UNL     1       1.548   5.928  14.074  1.00  0.00    -0.389 OA
HETATM   42  H37 UNL     1       1.161   5.127  14.480  1.00  0.00     0.210 HD
ENDBRANCH  13  41
BRANCH  10  43
HETATM   43  C19 UNL     1       1.396   7.520   9.695  1.00  0.00    -0.045 A 
HETATM   44  C20 UNL     1       1.871   7.147   8.501  1.00  0.00     0.087 A 
HETATM   45  C21 UNL     1       0.959   7.673   7.487  1.00  0.00     0.283 A 
HETATM   46  O4  UNL     1       1.100   7.528   6.288  1.00  0.00    -0.260 OA
HETATM   47  O5  UNL     1      -0.049   8.355   8.098  1.00  0.00    -0.314 OA
HETATM   48  C22 UNL     1       0.127   8.276   9.511  1.00  0.00     0.213 A 
ENDBRANCH  10  43
TORSDOF 12
ENDMDL
