MODEL 1
REMARK minimizedAffinity -7.62753344
REMARK CNNscore 0.5457623
REMARK CNNaffinity 6.49492788
REMARK  8 active torsions:
REMARK  status: ('A' for Active; 'I' for Inactive)
REMARK    1  A    between atoms: C4_4  and  C5_5 
REMARK    2  A    between atoms: C5_5  and  C6_6 
REMARK    3  A    between atoms: C6_6  and  C7_7 
REMARK    4  A    between atoms: C9_9  and  C10_10 
REMARK    5  A    between atoms: C11_11  and  C12_12 
REMARK    6  A    between atoms: C14_14  and  C15_15 
REMARK    7  A    between atoms: C24_25  and  C26_27 
REMARK    8  A    between atoms: C29_31  and  O3_33 
ROOT
HETATM    1  C15 UNL     1      -0.599  51.023 -13.737  1.00  0.00     0.149 C 
HETATM    2  C16 UNL     1      -1.101  52.108 -12.776  1.00  0.00     0.054 C 
HETATM    3  C17 UNL     1      -2.212  51.396 -11.970  1.00  0.00     0.050 C 
HETATM    4  C18 UNL     1      -2.783  50.547 -13.122  1.00  0.00     0.272 C 
HETATM    5  O1  UNL     1      -3.737  49.574 -12.754  1.00  0.00    -0.360 OA
HETATM    6  C19 UNL     1      -3.260  48.270 -12.499  1.00  0.00     0.171 C 
HETATM    7  C20 UNL     1      -2.312  48.138 -11.317  1.00  0.00     0.027 C 
HETATM    8  C21 UNL     1      -2.315  49.304 -10.329  1.00  0.00     0.012 C 
HETATM    9  C22 UNL     1      -1.515  50.510 -10.860  1.00  0.00     0.032 C 
HETATM   10  C23 UNL     1      -0.987  51.369  -9.691  1.00  0.00    -0.066 C 
HETATM   11  C24 UNL     1       0.288  51.351  -9.223  1.00  0.00    -0.021 C 
HETATM   12  C25 UNL     1       0.864  52.267  -8.172  1.00  0.00     0.052 C 
HETATM   13  C27 UNL     1      -2.060  52.266  -9.114  1.00  0.00     0.038 C 
HETATM   14  C28 UNL     1      -2.636  53.183 -10.187  1.00  0.00     0.042 C 
HETATM   15  C29 UNL     1      -3.263  52.384 -11.344  1.00  0.00     0.067 C 
HETATM   16  C30 UNL     1      -3.903  53.378 -12.329  1.00  0.00     0.047 C 
HETATM   17  O4  UNL     1      -1.661  50.058 -13.869  1.00  0.00    -0.351 OA
ENDROOT
BRANCH   1  18
HETATM   18  C14 UNL     1      -0.268  51.557 -15.100  1.00  0.00     0.011 C 
HETATM   19  C12 UNL     1       0.184  50.864 -16.166  1.00  0.00    -0.063 C 
HETATM   20  C13 UNL     1       0.483  49.385 -16.129  1.00  0.00     0.048 C 
BRANCH  19  21
HETATM   21  C11 UNL     1       0.423  51.581 -17.419  1.00  0.00     0.006 C 
HETATM   22  C10 UNL     1      -0.207  51.377 -18.589  1.00  0.00     0.001 C 
BRANCH  22  23
HETATM   23  C9  UNL     1       0.117  52.127 -19.788  1.00  0.00     0.002 C 
HETATM   24  C7  UNL     1      -0.038  51.724 -21.068  1.00  0.00    -0.084 C 
HETATM   25  C8  UNL     1      -0.643  50.405 -21.485  1.00  0.00     0.043 C 
BRANCH  24  26
HETATM   26  C6  UNL     1       0.380  52.569 -22.270  1.00  0.00     0.037 C 
BRANCH  26  27
HETATM   27  C5  UNL     1      -0.206  52.207 -23.643  1.00  0.00     0.031 C 
BRANCH  27  28
HETATM   28  C4  UNL     1       0.862  52.171 -24.705  1.00  0.00    -0.024 C 
HETATM   29  C2  UNL     1       0.817  51.551 -25.902  1.00  0.00    -0.091 C 
HETATM   30  C1  UNL     1       1.968  51.660 -26.866  1.00  0.00     0.042 C 
HETATM   31  C3  UNL     1      -0.327  50.708 -26.396  1.00  0.00     0.042 C 
ENDBRANCH  27  28
ENDBRANCH  26  27
ENDBRANCH  24  26
ENDBRANCH  22  23
ENDBRANCH  19  21
ENDBRANCH   1  18
BRANCH  15  32
HETATM   32  O3  UNL     1      -4.348  51.629 -10.790  1.00  0.00    -0.389 OA
HETATM   33  H44 UNL     1      -5.024  52.241 -10.454  1.00  0.00     0.210 HD
ENDBRANCH  15  32
BRANCH  11  34
HETATM   34  C26 UNL     1       1.302  50.355  -9.710  1.00  0.00     0.265 C 
HETATM   35  O2  UNL     1       1.763  50.378 -10.846  1.00  0.00    -0.302 OA
ENDBRANCH  11  34
TORSDOF 8
ENDMDL
