MODEL 1
REMARK minimizedAffinity -8.4078598
REMARK CNNscore 0.171473429
REMARK CNNaffinity 7.03845978
REMARK  12 active torsions:
REMARK  status: ('A' for Active; 'I' for Inactive)
REMARK    1  A    between atoms: C3_3  and  C4_4 
REMARK    2  A    between atoms: C4_4  and  C5_5 
REMARK    3  A    between atoms: C4_4  and  N3_26 
REMARK       I    between atoms: C5_5  and  N1_7 
REMARK    4  A    between atoms: N1_7  and  C6_8 
REMARK    5  A    between atoms: C6_8  and  C7_9 
REMARK    6  A    between atoms: C6_8  and  C15_19 
REMARK    7  A    between atoms: C8_10  and  C9_11 
REMARK    8  A    between atoms: C9_11  and  O3_13 
REMARK    9  A    between atoms: O3_13  and  C10_14 
REMARK   10  A    between atoms: C15_19  and  C16_20 
REMARK   11  A    between atoms: C23_30  and  N4_31 
REMARK       I    between atoms: N4_31  and  C24_32 
REMARK   12  A    between atoms: C24_32  and  C25_34 
ROOT
HETATM    1  C1  UNL     1      -0.886   1.489  10.959  1.00  0.00     0.012 C 
HETATM    2  C2  UNL     1      -1.708   2.361  10.887  1.00  0.00    -0.115 C 
HETATM    3  C3  UNL     1      -2.718   3.432  10.820  1.00  0.00     0.128 C 
ENDROOT
BRANCH   3   4
HETATM    4  C4  UNL     1      -3.327   3.773  12.199  1.00  0.00     0.195 C 
BRANCH   4   5
HETATM    5  C5  UNL     1      -3.046   5.254  12.563  1.00  0.00     0.242 C 
HETATM    6  O1  UNL     1      -3.788   6.167  12.208  1.00  0.00    -0.271 OA
HETATM    7  N1  UNL     1      -1.950   5.483  13.371  1.00  0.00    -0.351 N 
HETATM    8  H5  UNL     1      -1.297   4.719  13.484  1.00  0.00     0.163 HD
BRANCH   7   9
HETATM    9  C6  UNL     1      -1.520   6.813  13.761  1.00  0.00     0.108 C 
BRANCH   9  10
HETATM   10  C7  UNL     1      -0.107   6.948  13.252  1.00  0.00     0.004 C 
HETATM   11  C8  UNL     1       0.261   7.838  12.314  1.00  0.00     0.080 C 
BRANCH  11  12
HETATM   12  C9  UNL     1       1.653   8.039  11.859  1.00  0.00     0.283 C 
HETATM   13  O2  UNL     1       2.256   9.085  12.039  1.00  0.00    -0.260 OA
BRANCH  12  14
HETATM   14  O3  UNL     1       2.147   6.910  11.292  1.00  0.00    -0.313 OA
BRANCH  14  15
HETATM   15  C10 UNL     1       1.818   6.718   9.915  1.00  0.00     0.132 C 
HETATM   16  C11 UNL     1       2.951   7.173   9.004  1.00  0.00     0.032 C 
HETATM   17  C12 UNL     1       2.235   7.488   7.703  1.00  0.00     0.002 C 
HETATM   18  C13 UNL     1       0.953   8.178   8.152  1.00  0.00     0.002 C 
HETATM   19  C14 UNL     1       0.638   7.617   9.539  1.00  0.00     0.032 C 
ENDBRANCH  14  15
ENDBRANCH  12  14
ENDBRANCH  11  12
ENDBRANCH   9  10
BRANCH   9  20
HETATM   20  C15 UNL     1      -1.535   7.000  15.297  1.00  0.00     0.043 C 
BRANCH  20  21
HETATM   21  C16 UNL     1      -2.011   8.356  15.824  1.00  0.00     0.081 C 
HETATM   22  C17 UNL     1      -2.782   9.263  14.865  1.00  0.00     0.034 C 
HETATM   23  C18 UNL     1      -2.508  10.663  15.393  1.00  0.00     0.123 C 
HETATM   24  N2  UNL     1      -1.247  10.547  16.056  1.00  0.00    -0.361 N 
HETATM   25  C19 UNL     1      -0.882   9.244  16.301  1.00  0.00     0.222 C 
HETATM   26  H25 UNL     1      -0.626  11.317  16.281  1.00  0.00     0.162 HD
HETATM   27  O4  UNL     1       0.146   8.884  16.844  1.00  0.00    -0.273 OA
ENDBRANCH  20  21
ENDBRANCH   9  20
ENDBRANCH   7   9
ENDBRANCH   4   5
BRANCH   4  28
HETATM   28  N3  UNL     1      -4.772   3.416  12.294  1.00  0.00    -0.308 N 
HETATM   29  C20 UNL     1      -5.237   2.190  11.839  1.00  0.00     0.095 A 
HETATM   30  C21 UNL     1      -6.531   1.864  11.924  1.00  0.00     0.020 A 
HETATM   31  C22 UNL     1      -7.476   2.774  12.519  1.00  0.00     0.037 A 
HETATM   32  C23 UNL     1      -7.097   3.978  12.973  1.00  0.00     0.104 A 
HETATM   33  C29 UNL     1      -5.640   4.371  12.837  1.00  0.00     0.275 A 
HETATM   34  O7  UNL     1      -5.291   5.492  13.204  1.00  0.00    -0.265 OA
BRANCH  32  35
HETATM   35  N4  UNL     1      -7.904   4.916  13.578  1.00  0.00    -0.317 N 
HETATM   36  C24 UNL     1      -8.792   5.808  13.007  1.00  0.00     0.274 C 
HETATM   37  O5  UNL     1      -8.970   5.959  11.802  1.00  0.00    -0.266 OA
HETATM   38  H29 UNL     1      -7.865   4.926  14.602  1.00  0.00     0.169 HD
BRANCH  36  39
HETATM   39  C25 UNL     1      -9.528   6.607  13.993  1.00  0.00     0.125 A 
HETATM   40  C26 UNL     1      -8.996   7.553  14.906  1.00  0.00     0.071 A 
HETATM   41  C27 UNL     1     -10.086   8.007  15.607  1.00  0.00     0.075 A 
HETATM   42  C28 UNL     1     -10.269   8.960  16.716  1.00  0.00     0.079 C 
HETATM   43  O6  UNL     1     -11.204   7.388  15.146  1.00  0.00    -0.242 OA
HETATM   44  N5  UNL     1     -10.862   6.510  14.132  1.00  0.00    -0.256 N 
ATOM     45  H5  UNL     1     -11.493   5.912  13.599  1.00  0.00     0.195 HD
ENDBRANCH  36  39
ENDBRANCH  32  35
ENDBRANCH   4  28
ENDBRANCH   3   4
TORSDOF 12
ENDMDL
