MODEL 1
REMARK minimizedAffinity -10.4097195
REMARK  8 active torsions:
REMARK  status: ('A' for Active; 'I' for Inactive)
REMARK    1  A    between atoms: C12_12  and  O1_13 
REMARK    2  A    between atoms: C17_18  and  O2_19 
REMARK    3  A    between atoms: C18_20  and  C19_21 
REMARK    4  A    between atoms: C19_21  and  C21_23 
REMARK    5  A    between atoms: C21_23  and  C22_24 
REMARK    6  A    between atoms: C22_24  and  C23_25 
REMARK    7  A    between atoms: C24_26  and  C26_28 
REMARK    8  A    between atoms: C26_28  and  O3_29 
ROOT
HETATM    1  C1  UNL     1       3.079  52.692 -16.701  1.00  0.00     0.044 C 
HETATM    2  C2  UNL     1       2.224  51.823 -15.814  1.00  0.00    -0.074 C 
HETATM    3  C3  UNL     1       1.129  51.109 -16.184  1.00  0.00    -0.044 C 
HETATM    4  C4  UNL     1       0.364  51.257 -17.459  1.00  0.00    -0.048 C 
HETATM    5  C5  UNL     1      -0.516  50.298 -17.863  1.00  0.00    -0.064 C 
HETATM    6  C6  UNL     1      -0.723  48.996 -17.132  1.00  0.00     0.036 C 
HETATM    7  C7  UNL     1       0.268  48.775 -16.002  1.00  0.00     0.014 C 
HETATM    8  C8  UNL     1       0.506  50.075 -15.216  1.00  0.00     0.030 C 
HETATM    9  C9  UNL     1       1.293  49.807 -13.881  1.00  0.00    -0.014 C 
HETATM   10  C10 UNL     1       2.455  48.800 -14.064  1.00  0.00     0.018 C 
HETATM   11  C11 UNL     1       0.339  49.212 -12.820  1.00  0.00     0.018 C 
HETATM   12  C12 UNL     1       1.812  51.171 -13.376  1.00  0.00     0.130 C 
HETATM   13  C13 UNL     1       2.755  51.809 -14.395  1.00  0.00     0.067 C 
HETATM   14  C14 UNL     1      -1.462  50.548 -19.041  1.00  0.00    -0.010 C 
HETATM   15  C15 UNL     1      -2.746  51.151 -18.380  1.00  0.00     0.021 C 
HETATM   16  C16 UNL     1      -1.912  49.372 -19.930  1.00  0.00     0.046 C 
HETATM   17  C17 UNL     1      -2.414  50.038 -21.236  1.00  0.00     0.124 C 
HETATM   18  C18 UNL     1      -1.844  51.490 -21.244  1.00  0.00     0.027 C 
HETATM   19  C27 UNL     1      -0.763  51.451 -20.124  1.00  0.00    -0.026 C 
HETATM   20  C28 UNL     1       0.565  50.826 -20.650  1.00  0.00     0.016 C 
HETATM   21  C29 UNL     1      -0.447  52.791 -19.456  1.00  0.00     0.015 C 
HETATM   22  C30 UNL     1       0.477  52.580 -18.235  1.00  0.00     0.040 C 
ENDROOT
BRANCH  18  23
HETATM   23  C19 UNL     1      -1.580  52.204 -22.607  1.00  0.00    -0.011 C 
HETATM   24  C20 UNL     1      -2.931  52.381 -23.333  1.00  0.00     0.010 C 
BRANCH  23  25
HETATM   25  C21 UNL     1      -0.542  51.582 -23.573  1.00  0.00     0.008 C 
BRANCH  25  26
HETATM   26  C22 UNL     1       0.359  52.576 -24.323  1.00  0.00     0.028 C 
BRANCH  26  27
HETATM   27  C23 UNL     1       0.220  52.510 -25.820  1.00  0.00    -0.022 C 
HETATM   28  C24 UNL     1       1.086  51.969 -26.703  1.00  0.00    -0.064 C 
HETATM   29  C25 UNL     1       0.763  51.951 -28.176  1.00  0.00     0.045 C 
BRANCH  28  30
HETATM   30  C26 UNL     1       2.408  51.348 -26.342  1.00  0.00     0.197 C 
BRANCH  30  31
HETATM   31  O3  UNL     1       3.305  51.501 -27.433  1.00  0.00    -0.397 OA
HETATM   32  H41 UNL     1       3.306  52.450 -27.656  1.00  0.00     0.209 HD
ENDBRANCH  30  31
ENDBRANCH  28  30
ENDBRANCH  26  27
ENDBRANCH  25  26
ENDBRANCH  23  25
ENDBRANCH  18  23
BRANCH  17  33
HETATM   33  O2  UNL     1      -2.014  49.261 -22.346  1.00  0.00    -0.395 OA
HETATM   34  H25 UNL     1      -2.416  48.380 -22.252  1.00  0.00     0.210 HD
ENDBRANCH  17  33
BRANCH  12  35
HETATM   35  O1  UNL     1       2.467  51.064 -12.110  1.00  0.00    -0.394 OA
HETATM   36  H16 UNL     1       3.326  50.631 -12.242  1.00  0.00     0.210 HD
ENDBRANCH  12  35
TORSDOF 8
ENDMDL
