MODEL 1
REMARK minimizedAffinity -9.97607517
REMARK  7 active torsions:
REMARK  status: ('A' for Active; 'I' for Inactive)
REMARK    1  A    between atoms: C19_20  and  O2_21 
REMARK    2  A    between atoms: O2_21  and  C20_22 
REMARK    3  A    between atoms: C20_22  and  C21_24 
REMARK    4  A    between atoms: C21_24  and  C22_25 
REMARK    5  A    between atoms: C22_25  and  C23_26 
REMARK       I    between atoms: C23_26  and  N1_28 
REMARK    6  A    between atoms: N1_28  and  C24_29 
REMARK    7  A    between atoms: C24_29  and  C25_30 
ROOT
HETATM    1  C1  UNL     1      -2.697  51.040 -22.271  1.00  0.00     0.018 C 
HETATM    2  C2  UNL     1      -2.477  49.679 -21.588  1.00  0.00    -0.013 C 
HETATM    3  C3  UNL     1      -3.409  49.574 -20.362  1.00  0.00     0.012 C 
HETATM    4  C4  UNL     1      -2.903  50.355 -19.146  1.00  0.00     0.007 C 
HETATM    5  C5  UNL     1      -1.503  49.874 -18.716  1.00  0.00     0.002 C 
HETATM    6  C6  UNL     1      -0.499  50.034 -19.892  1.00  0.00    -0.004 C 
HETATM    7  C7  UNL     1      -0.043  51.499 -20.111  1.00  0.00     0.010 C 
HETATM    8  C8  UNL     1      -0.169  52.396 -18.882  1.00  0.00     0.035 C 
HETATM    9  C9  UNL     1       0.077  51.597 -17.637  1.00  0.00    -0.068 C 
HETATM   10  C10 UNL     1       1.158  51.827 -16.872  1.00  0.00     0.053 C 
HETATM   11  C11 UNL     1       1.457  50.999 -15.680  1.00  0.00     0.149 C 
HETATM   12  O1  UNL     1       2.402  51.308 -14.956  1.00  0.00    -0.293 OA
HETATM   13  C12 UNL     1       0.569  49.819 -15.373  1.00  0.00     0.084 C 
HETATM   14  C13 UNL     1      -0.189  49.342 -16.608  1.00  0.00     0.022 C 
HETATM   15  C14 UNL     1      -0.932  50.483 -17.368  1.00  0.00    -0.016 C 
HETATM   16  C15 UNL     1      -2.048  51.044 -16.460  1.00  0.00     0.020 C 
HETATM   17  C16 UNL     1      -0.999  49.405 -21.214  1.00  0.00     0.001 C 
HETATM   18  C17 UNL     1      -0.892  47.864 -21.196  1.00  0.00     0.008 C 
HETATM   19  C18 UNL     1      -2.040  47.329 -22.046  1.00  0.00     0.034 C 
HETATM   20  C19 UNL     1      -2.736  48.558 -22.628  1.00  0.00     0.140 C 
ENDROOT
BRANCH  20  21
HETATM   21  O2  UNL     1      -4.139  48.343 -22.813  1.00  0.00    -0.315 OA
BRANCH  21  22
HETATM   22  C20 UNL     1      -4.586  48.408 -24.097  1.00  0.00     0.259 C 
HETATM   23  O3  UNL     1      -5.755  48.310 -24.445  1.00  0.00    -0.265 OA
BRANCH  22  24
HETATM   24  C21 UNL     1      -3.421  48.615 -25.026  1.00  0.00     0.120 C 
BRANCH  24  25
HETATM   25  C22 UNL     1      -3.835  48.413 -26.478  1.00  0.00     0.112 C 
BRANCH  25  26
HETATM   26  C23 UNL     1      -3.296  49.511 -27.367  1.00  0.00     0.218 C 
HETATM   27  O4  UNL     1      -3.610  49.643 -28.544  1.00  0.00    -0.274 OA
HETATM   28  N1  UNL     1      -2.417  50.345 -26.714  1.00  0.00    -0.357 N 
HETATM   29  H32 UNL     1      -2.326  50.266 -25.709  1.00  0.00     0.162 HD
BRANCH  28  30
HETATM   30  C24 UNL     1      -1.860  51.520 -27.350  1.00  0.00     0.162 C 
BRANCH  30  31
HETATM   31  C25 UNL     1      -0.370  51.569 -27.184  1.00  0.00    -0.025 A 
HETATM   32  C26 UNL     1       0.233  51.352 -25.941  1.00  0.00     0.011 A 
HETATM   33  C27 UNL     1       1.619  51.389 -25.829  1.00  0.00     0.018 A 
HETATM   34  C28 UNL     1       2.362  51.639 -26.970  1.00  0.00     0.087 A 
HETATM   35  N2  UNL     1       1.819  51.849 -28.188  1.00  0.00    -0.375 N 
HETATM   36  C29 UNL     1       0.470  51.809 -28.267  1.00  0.00     0.096 A 
ATOM     37  H2  UNL     1       2.398  52.029 -29.008  1.00  0.00     0.164 HD
ENDBRANCH  30  31
ENDBRANCH  28  30
ENDBRANCH  25  26
ENDBRANCH  24  25
ENDBRANCH  22  24
ENDBRANCH  21  22
ENDBRANCH  20  21
TORSDOF 7
ENDMDL
