MODEL 1
REMARK minimizedAffinity -8.6492691
REMARK  10 active torsions:
REMARK  status: ('A' for Active; 'I' for Inactive)
REMARK    1  A    between atoms: C5_5  and  C6_6 
REMARK    2  A    between atoms: C6_6  and  C8_8 
REMARK    3  A    between atoms: C8_8  and  O1_9 
REMARK    4  A    between atoms: O1_9  and  C9_10 
REMARK    5  A    between atoms: C17_20  and  O4_21 
REMARK    6  A    between atoms: C19_23  and  O5_24 
REMARK    7  A    between atoms: O5_24  and  C20_25 
REMARK    8  A    between atoms: C20_25  and  C21_27 
REMARK    9  A    between atoms: C21_27  and  C22_28 
REMARK   10  A    between atoms: C24_30  and  O7_32 
ROOT
HETATM    1  C1  UNL     1      -3.775  51.355 -19.537  1.00  0.00     0.015 C 
HETATM    2  C2  UNL     1      -2.701  50.808 -20.130  1.00  0.00    -0.082 C 
HETATM    3  C3  UNL     1      -1.844  49.793 -19.416  1.00  0.00     0.034 C 
HETATM    4  C4  UNL     1      -0.412  49.738 -19.957  1.00  0.00     0.010 C 
HETATM    5  C5  UNL     1       0.124  51.105 -20.428  1.00  0.00    -0.001 C 
HETATM    6  C11 UNL     1      -0.797  51.705 -21.559  1.00  0.00     0.033 C 
HETATM    7  C12 UNL     1      -0.361  51.304 -22.988  1.00  0.00     0.163 C 
HETATM    8  O3  UNL     1      -1.103  50.119 -23.310  1.00  0.00    -0.376 OA
HETATM    9  C13 UNL     1      -2.298  50.059 -22.530  1.00  0.00     0.134 C 
HETATM   10  C14 UNL     1      -3.545  49.956 -23.426  1.00  0.00     0.068 C 
HETATM   11  C15 UNL     1      -3.923  51.178 -24.239  1.00  0.00    -0.058 C 
HETATM   12  C16 UNL     1      -4.902  51.987 -23.780  1.00  0.00     0.017 C 
HETATM   13  C17 UNL     1      -3.295  51.381 -25.614  1.00  0.00     0.149 C 
HETATM   14  C18 UNL     1      -1.856  50.920 -25.895  1.00  0.00     0.072 C 
HETATM   15  C19 UNL     1      -0.679  51.856 -25.535  1.00  0.00     0.171 C 
HETATM   16  C24 UNL     1      -0.577  52.419 -24.081  1.00  0.00     0.107 C 
HETATM   17  C25 UNL     1       0.613  53.402 -24.000  1.00  0.00     0.051 C 
HETATM   18  C26 UNL     1      -2.256  51.213 -21.516  1.00  0.00     0.050 C 
ENDROOT
BRANCH   5  19
HETATM   19  C6  UNL     1       0.314  52.134 -19.253  1.00  0.00     0.010 C 
HETATM   20  C7  UNL     1      -0.470  53.442 -19.445  1.00  0.00     0.012 C 
BRANCH  19  21
HETATM   21  C8  UNL     1      -0.057  51.531 -17.876  1.00  0.00     0.183 C 
BRANCH  21  22
HETATM   22  O1  UNL     1       1.114  51.224 -17.096  1.00  0.00    -0.321 OA
BRANCH  22  23
HETATM   23  C9  UNL     1       1.537  52.160 -16.209  1.00  0.00     0.254 C 
HETATM   24  C10 UNL     1       2.925  52.603 -16.558  1.00  0.00     0.126 C 
HETATM   25  O2  UNL     1       0.894  52.592 -15.264  1.00  0.00    -0.266 OA
ENDBRANCH  22  23
ENDBRANCH  21  22
ENDBRANCH  19  21
ENDBRANCH   5  19
BRANCH  16  26
HETATM   26  O7  UNL     1      -1.756  53.206 -23.813  1.00  0.00    -0.385 OA
HETATM   27  H39 UNL     1      -1.542  54.142 -23.980  1.00  0.00     0.210 HD
ENDBRANCH  16  26
BRANCH  15  28
HETATM   28  O5  UNL     1       0.527  51.114 -25.856  1.00  0.00    -0.313 OA
BRANCH  28  29
HETATM   29  C20 UNL     1       1.356  51.630 -26.801  1.00  0.00     0.259 C 
HETATM   30  O6  UNL     1       2.489  52.045 -26.607  1.00  0.00    -0.265 OA
BRANCH  29  31
HETATM   31  C21 UNL     1       0.684  51.610 -28.152  1.00  0.00     0.111 C 
BRANCH  31  32
HETATM   32  C22 UNL     1       0.529  53.008 -28.743  1.00  0.00     0.005 C 
HETATM   33  C23 UNL     1      -0.305  53.927 -27.859  1.00  0.00     0.005 C 
ENDBRANCH  31  32
ENDBRANCH  29  31
ENDBRANCH  28  29
ENDBRANCH  15  28
BRANCH  13  34
HETATM   34  O4  UNL     1      -3.407  52.753 -25.998  1.00  0.00    -0.391 OA
HETATM   35  H25 UNL     1      -3.080  53.243 -25.219  1.00  0.00     0.210 HD
ENDBRANCH  13  34
TORSDOF 10
ENDMDL
