MODEL 1
REMARK minimizedAffinity -10.0745401
REMARK  7 active torsions:
REMARK  status: ('A' for Active; 'I' for Inactive)
REMARK    1  A    between atoms: C2_2  and  C30_32 
REMARK    2  A    between atoms: C3_3  and  C4_4 
REMARK    3  A    between atoms: C4_4  and  O1_5 
REMARK    4  A    between atoms: C4_4  and  C5_6 
REMARK    5  A    between atoms: C5_6  and  C6_7 
REMARK    6  A    between atoms: C6_7  and  C8_9 
REMARK    7  A    between atoms: C30_32  and  O4_34 
ROOT
HETATM    1  C8  UNL     1      -4.169  50.109 -24.753  1.00  0.00    -0.002 C 
HETATM    2  C9  UNL     1      -5.419  49.287 -24.324  1.00  0.00     0.006 C 
HETATM    3  C10 UNL     1      -5.371  49.127 -22.795  1.00  0.00     0.011 C 
HETATM    4  C11 UNL     1      -4.280  50.108 -22.324  1.00  0.00    -0.032 C 
HETATM    5  C12 UNL     1      -4.968  51.504 -22.199  1.00  0.00     0.016 C 
HETATM    6  C13 UNL     1      -3.608  49.708 -20.982  1.00  0.00     0.004 C 
HETATM    7  C14 UNL     1      -4.502  49.911 -19.750  1.00  0.00     0.007 C 
HETATM    8  C15 UNL     1      -3.793  49.394 -18.502  1.00  0.00     0.007 C 
HETATM    9  C16 UNL     1      -2.589  50.282 -18.155  1.00  0.00     0.010 C 
HETATM   10  C17 UNL     1      -1.766  49.833 -16.900  1.00  0.00     0.018 C 
HETATM   11  C18 UNL     1      -2.218  50.643 -15.667  1.00  0.00     0.023 C 
HETATM   12  C19 UNL     1      -1.932  48.333 -16.573  1.00  0.00     0.023 C 
HETATM   13  C20 UNL     1      -0.260  50.109 -17.075  1.00  0.00     0.135 C 
HETATM   14  O2  UNL     1       0.591  49.423 -16.496  1.00  0.00    -0.297 OA
HETATM   15  C21 UNL     1       0.192  51.320 -17.864  1.00  0.00     0.080 C 
HETATM   16  C22 UNL     1      -0.731  51.700 -19.015  1.00  0.00     0.018 C 
HETATM   17  C23 UNL     1      -1.682  50.572 -19.351  1.00  0.00    -0.026 A 
HETATM   18  C24 UNL     1      -1.143  49.463 -20.212  1.00  0.00     0.021 A 
HETATM   19  C25 UNL     1      -2.220  50.374 -20.793  1.00  0.00    -0.027 A 
HETATM   20  C26 UNL     1      -1.794  51.390 -21.857  1.00  0.00     0.011 C 
HETATM   21  C27 UNL     1      -2.189  51.100 -23.314  1.00  0.00     0.011 C 
HETATM   22  C28 UNL     1      -3.239  49.994 -23.497  1.00  0.00    -0.032 C 
HETATM   23  C29 UNL     1      -2.487  48.630 -23.551  1.00  0.00     0.016 C 
ENDROOT
BRANCH   1  24
HETATM   24  C6  UNL     1      -3.643  49.694 -26.163  1.00  0.00    -0.011 C 
HETATM   25  C7  UNL     1      -4.193  48.329 -26.599  1.00  0.00     0.010 C 
BRANCH  24  26
HETATM   26  C5  UNL     1      -2.089  49.662 -26.168  1.00  0.00     0.040 C 
BRANCH  26  27
HETATM   27  C4  UNL     1      -1.379  50.946 -26.633  1.00  0.00     0.142 C 
BRANCH  27  28
HETATM   28  C3  UNL     1       0.109  50.922 -26.423  1.00  0.00     0.018 C 
HETATM   29  C2  UNL     1       1.083  51.480 -27.176  1.00  0.00     0.010 C 
HETATM   30  C1  UNL     1       0.875  52.218 -28.467  1.00  0.00     0.055 C 
BRANCH  29  31
HETATM   31  C30 UNL     1       2.510  51.380 -26.766  1.00  0.00     0.171 C 
HETATM   32  O3  UNL     1       2.948  50.641 -25.902  1.00  0.00    -0.646 OA
BRANCH  31  33
HETATM   33  O4  UNL     1       3.332  52.203 -27.441  1.00  0.00    -0.773 OA
HETATM   34  H46 UNL     1       4.212  52.006 -27.058  1.00  0.00     0.167 HD
ENDBRANCH  31  33
ENDBRANCH  29  31
ENDBRANCH  27  28
BRANCH  27  35
HETATM   35  O1  UNL     1      -1.658  51.165 -28.013  1.00  0.00    -0.392 OA
HETATM   36  H6  UNL     1      -2.623  51.235 -28.105  1.00  0.00     0.210 HD
ENDBRANCH  27  35
ENDBRANCH  26  27
ENDBRANCH  24  26
ENDBRANCH   1  24
TORSDOF 7
ENDMDL
