MODEL 1
REMARK minimizedAffinity -9.65845203
REMARK CNNscore 0.617229223
REMARK CNNaffinity 6.88636827
REMARK  10 active torsions:
REMARK  status: ('A' for Active; 'I' for Inactive)
REMARK    1  A    between atoms: C9_9  and  O1_10 
REMARK    2  A    between atoms: C11_12  and  O2_13 
REMARK    3  A    between atoms: O2_13  and  C12_14 
REMARK    4  A    between atoms: C14_16  and  O3_17 
REMARK    5  A    between atoms: C15_18  and  O4_19 
REMARK    6  A    between atoms: C16_20  and  C17_21 
REMARK    7  A    between atoms: C17_21  and  O5_22 
REMARK    8  A    between atoms: C20_26  and  C21_27 
REMARK    9  A    between atoms: C22_29  and  O8_30 
REMARK   10  A    between atoms: C25_33  and  C26_34 
ROOT
HETATM    1  C1  UNL     1       2.404   7.493  12.523  1.00  0.00     0.019 C 
HETATM    2  C2  UNL     1       0.851   7.420  12.453  1.00  0.00    -0.005 C 
HETATM    3  C3  UNL     1       0.308   8.773  12.975  1.00  0.00     0.013 C 
HETATM    4  C4  UNL     1      -1.219   8.869  13.082  1.00  0.00     0.007 C 
HETATM    5  C5  UNL     1      -1.908   7.554  13.513  1.00  0.00     0.011 C 
HETATM    6  C6  UNL     1      -0.904   6.611  14.223  1.00  0.00     0.026 C 
HETATM    7  C7  UNL     1      -1.594   5.415  14.913  1.00  0.00     0.011 C 
HETATM    8  C8  UNL     1      -2.975   5.134  14.341  1.00  0.00     0.039 C 
HETATM    9  C9  UNL     1      -3.938   6.327  14.520  1.00  0.00     0.074 C 
HETATM   10  C10 UNL     1      -5.117   6.129  13.537  1.00  0.00     0.071 C 
HETATM   11  C11 UNL     1      -6.225   7.174  13.711  1.00  0.00     0.127 C 
HETATM   12  C18 UNL     1      -5.660   8.565  14.019  1.00  0.00     0.033 C 
HETATM   13  C19 UNL     1      -4.198   8.720  13.582  1.00  0.00     0.022 C 
HETATM   14  C20 UNL     1      -3.243   7.733  14.322  1.00  0.00     0.048 C 
HETATM   15  C22 UNL     1       0.323   6.229  13.335  1.00  0.00     0.070 C 
HETATM   16  C23 UNL     1       0.139   5.090  12.327  1.00  0.00     0.040 C 
HETATM   17  C24 UNL     1      -0.340   5.726  11.041  1.00  0.00     0.013 C 
HETATM   18  C25 UNL     1       0.311   7.129  10.994  1.00  0.00     0.028 C 
ENDROOT
BRANCH  11  19
HETATM   19  O2  UNL     1      -7.062   6.734  14.789  1.00  0.00    -0.356 OA
BRANCH  19  20
HETATM   20  C12 UNL     1      -7.292   7.726  15.789  1.00  0.00     0.263 C 
HETATM   21  C13 UNL     1      -7.495   9.081  15.105  1.00  0.00     0.095 C 
HETATM   22  C14 UNL     1      -8.744   9.765  15.617  1.00  0.00     0.154 C 
HETATM   23  C15 UNL     1      -9.950   8.840  15.407  1.00  0.00     0.178 C 
HETATM   24  C16 UNL     1      -9.697   7.443  16.014  1.00  0.00     0.179 C 
HETATM   25  O6  UNL     1      -8.396   7.350  16.611  1.00  0.00    -0.351 OA
BRANCH  22  26
HETATM   26  O3  UNL     1      -8.958  10.991  14.907  1.00  0.00    -0.393 OA
HETATM   27  H22 UNL     1      -9.922  11.166  14.987  1.00  0.00     0.210 HD
ENDBRANCH  22  26
BRANCH  23  28
HETATM   28  O4  UNL     1     -11.108   9.462  15.985  1.00  0.00    -0.390 OA
HETATM   29  H24 UNL     1     -10.980   9.485  16.950  1.00  0.00     0.210 HD
ENDBRANCH  23  28
BRANCH  24  30
HETATM   30  C17 UNL     1      -9.968   6.318  15.003  1.00  0.00     0.198 C 
BRANCH  30  31
HETATM   31  O5  UNL     1     -11.356   6.199  14.699  1.00  0.00    -0.398 OA
HETATM   32  H28 UNL     1     -11.662   7.030  14.295  1.00  0.00     0.209 HD
ENDBRANCH  30  31
ENDBRANCH  24  30
ENDBRANCH  19  20
ENDBRANCH  11  19
BRANCH   9  33
HETATM   33  O1  UNL     1      -4.453   6.239  15.854  1.00  0.00    -0.389 OA
HETATM   34  H14 UNL     1      -5.159   5.562  15.881  1.00  0.00     0.210 HD
ENDBRANCH   9  33
BRANCH  14  35
HETATM   35  C21 UNL     1      -2.966   8.382  15.695  1.00  0.00     0.244 C 
HETATM   36  O7  UNL     1      -2.256   7.894  16.571  1.00  0.00    -0.306 OA
ENDBRANCH  14  35
BRANCH  15  37
HETATM   37  O8  UNL     1       1.345   5.795  14.248  1.00  0.00    -0.389 OA
HETATM   38  H34 UNL     1       1.028   5.014  14.732  1.00  0.00     0.210 HD
ENDBRANCH  15  37
BRANCH  18  39
HETATM   39  C26 UNL     1       1.295   7.337   9.871  1.00  0.00    -0.045 A 
HETATM   40  C27 UNL     1       1.496   8.416   9.112  1.00  0.00     0.087 A 
HETATM   41  C28 UNL     1       2.552   8.085   8.156  1.00  0.00     0.283 A 
HETATM   42  O9  UNL     1       2.994   8.841   7.312  1.00  0.00    -0.260 OA
HETATM   43  O10 UNL     1       2.956   6.803   8.358  1.00  0.00    -0.314 OA
HETATM   44  C29 UNL     1       2.201   6.239   9.431  1.00  0.00     0.213 A 
ENDBRANCH  18  39
TORSDOF 10
ENDMDL
