MODEL 1
REMARK minimizedAffinity -8.10116291
REMARK CNNscore 0.725632608
REMARK CNNaffinity 7.39742994
REMARK  8 active torsions:
REMARK  status: ('A' for Active; 'I' for Inactive)
REMARK    1  A    between atoms: C3_3  and  O1_4 
REMARK    2  A    between atoms: N1_14  and  O2_16 
REMARK    3  A    between atoms: O2_16  and  C13_17 
REMARK    4  A    between atoms: C13_17  and  C14_18 
REMARK       I    between atoms: C14_18  and  N2_20 
REMARK    5  A    between atoms: N2_20  and  C15_21 
REMARK    6  A    between atoms: C15_21  and  C16_22 
REMARK    7  A    between atoms: C16_22  and  O4_23 
REMARK    8  A    between atoms: C16_22  and  C17_24 
ROOT
HETATM    1  C1  UNL     1      -5.960   2.614  12.059  1.00  0.00     0.015 C 
HETATM    2  C2  UNL     1      -6.686   3.336  12.689  1.00  0.00    -0.078 C 
HETATM    3  C3  UNL     1      -7.596   4.183  13.481  1.00  0.00     0.128 C 
HETATM    4  C4  UNL     1      -7.325   4.048  14.981  1.00  0.00     0.052 C 
HETATM    5  C5  UNL     1      -8.114   5.210  15.566  1.00  0.00     0.010 C 
HETATM    6  C6  UNL     1      -7.918   6.380  14.576  1.00  0.00     0.002 C 
HETATM    7  C7  UNL     1      -9.123   7.349  14.452  1.00  0.00    -0.004 C 
HETATM    8  C8  UNL     1      -9.591   7.813  15.841  1.00  0.00     0.010 C 
HETATM    9  C9  UNL     1     -10.796   8.736  15.766  1.00  0.00     0.035 C 
HETATM   10  C10 UNL     1     -11.926   8.073  15.011  1.00  0.00    -0.069 C 
HETATM   11  C11 UNL     1     -13.135   7.938  15.590  1.00  0.00     0.030 C 
HETATM   12  C12 UNL     1     -14.290   7.365  14.846  1.00  0.00     0.032 C 
HETATM   13  N1  UNL     1     -15.423   6.997  15.360  1.00  0.00    -0.271 N 
ATOM     14  H1  UNL     1     -16.215   6.658  14.814  1.00  0.00     0.194 HD
HETATM   15  C23 UNL     1     -14.132   7.250  13.347  1.00  0.00     0.060 C 
HETATM   16  C24 UNL     1     -12.743   6.712  13.030  1.00  0.00     0.020 C 
HETATM   17  C25 UNL     1     -11.595   7.601  13.593  1.00  0.00    -0.016 C 
HETATM   18  C26 UNL     1     -11.454   8.863  12.711  1.00  0.00     0.020 C 
HETATM   19  C27 UNL     1     -10.277   6.734  13.625  1.00  0.00     0.002 C 
HETATM   20  C28 UNL     1      -9.802   6.305  12.215  1.00  0.00     0.007 C 
HETATM   21  C29 UNL     1      -8.286   6.243  12.031  1.00  0.00     0.014 C 
HETATM   22  C30 UNL     1      -7.467   5.722  13.229  1.00  0.00     0.003 C 
HETATM   23  C31 UNL     1      -5.984   6.125  12.983  1.00  0.00     0.020 C 
ENDROOT
BRANCH   3  24
HETATM   24  O1  UNL     1      -8.929   3.732  13.249  1.00  0.00    -0.377 OA
HETATM   25  H2  UNL     1      -8.913   2.759  13.283  1.00  0.00     0.211 HD
ENDBRANCH   3  24
BRANCH  13  26
HETATM   26  O2  UNL     1     -15.426   7.122  16.760  1.00  0.00    -0.271 OA
BRANCH  26  27
HETATM   27  C13 UNL     1     -16.649   6.616  17.281  1.00  0.00     0.303 C 
BRANCH  27  28
HETATM   28  C14 UNL     1     -16.775   6.816  18.791  1.00  0.00     0.243 C 
HETATM   29  O3  UNL     1     -17.199   7.860  19.289  1.00  0.00    -0.271 OA
HETATM   30  N2  UNL     1     -16.346   5.738  19.541  1.00  0.00    -0.356 N 
HETATM   31  H16 UNL     1     -15.861   4.995  19.030  1.00  0.00     0.162 HD
BRANCH  30  32
HETATM   32  C15 UNL     1     -16.235   5.813  20.988  1.00  0.00     0.159 C 
BRANCH  32  33
HETATM   33  C16 UNL     1     -14.809   6.171  21.475  1.00  0.00     0.170 C 
BRANCH  33  34
HETATM   34  O4  UNL     1     -14.785   7.422  22.168  1.00  0.00    -0.389 OA
HETATM   35  H20 UNL     1     -15.098   7.269  23.083  1.00  0.00     0.210 HD
ENDBRANCH  33  34
BRANCH  33  36
HETATM   36  C17 UNL     1     -14.188   5.107  22.347  1.00  0.00    -0.013 A 
HETATM   37  C18 UNL     1     -13.710   5.365  23.637  1.00  0.00     0.013 A 
HETATM   38  C19 UNL     1     -13.151   4.335  24.391  1.00  0.00     0.025 A 
HETATM   39  C20 UNL     1     -13.064   3.062  23.835  1.00  0.00     0.005 A 
HETATM   40  C21 UNL     1     -12.479   1.933  24.630  1.00  0.00     0.068 C 
HETATM   41  N3  UNL     1     -13.497   2.788  22.581  1.00  0.00    -0.369 N 
HETATM   42  C22 UNL     1     -14.033   3.808  21.869  1.00  0.00     0.097 A 
ATOM     43  H3  UNL     1     -13.422   1.850  22.188  1.00  0.00     0.165 HD
ENDBRANCH  33  36
ENDBRANCH  32  33
ENDBRANCH  30  32
ENDBRANCH  27  28
ENDBRANCH  26  27
ENDBRANCH  13  26
TORSDOF 8
ENDMDL
