MODEL 1
REMARK minimizedAffinity -9.01371002
REMARK  7 active torsions:
REMARK  status: ('A' for Active; 'I' for Inactive)
REMARK    1  A    between atoms: C4_4  and  C5_5 
REMARK    2  A    between atoms: C5_5  and  C6_6 
REMARK    3  A    between atoms: C6_6  and  C7_7 
REMARK    4  A    between atoms: C7_7  and  C9_9 
REMARK    5  A    between atoms: C27_27  and  O1_28 
REMARK    6  A    between atoms: C28_29  and  O2_30 
REMARK    7  A    between atoms: C29_31  and  O3_32 
ROOT
HETATM    1  C9  UNL     1      -5.340   5.065  14.049  1.00  0.00    -0.002 C 
HETATM    2  C10 UNL     1      -5.010   4.493  12.637  1.00  0.00     0.007 C 
HETATM    3  C11 UNL     1      -3.741   5.197  12.132  1.00  0.00     0.015 C 
HETATM    4  C12 UNL     1      -3.129   5.844  13.383  1.00  0.00    -0.013 C 
HETATM    5  C13 UNL     1      -2.330   4.729  14.127  1.00  0.00     0.021 C 
HETATM    6  C14 UNL     1      -2.137   6.993  13.216  1.00  0.00    -0.068 C 
HETATM    7  C15 UNL     1      -1.997   7.920  14.199  1.00  0.00    -0.065 C 
HETATM    8  C16 UNL     1      -2.916   7.903  15.431  1.00  0.00     0.036 C 
HETATM    9  C17 UNL     1      -4.007   6.811  15.508  1.00  0.00     0.015 C 
HETATM   10  C18 UNL     1      -4.436   6.338  14.115  1.00  0.00    -0.029 C 
HETATM   11  C19 UNL     1      -5.146   7.514  13.377  1.00  0.00     0.016 C 
HETATM   12  C20 UNL     1      -0.940   9.059  14.136  1.00  0.00     0.012 C 
HETATM   13  C21 UNL     1      -1.709  10.384  13.882  1.00  0.00     0.023 C 
HETATM   14  C22 UNL     1       0.092   8.872  12.938  1.00  0.00     0.007 C 
HETATM   15  C23 UNL     1      -0.618   8.315  11.698  1.00  0.00     0.010 C 
HETATM   16  C24 UNL     1      -1.305   6.987  11.961  1.00  0.00     0.036 C 
HETATM   17  C25 UNL     1       1.422   8.140  13.340  1.00  0.00     0.018 C 
HETATM   18  C26 UNL     1       2.179   7.495  12.174  1.00  0.00     0.013 C 
HETATM   19  C27 UNL     1       1.214   7.175  14.514  1.00  0.00     0.153 C 
HETATM   20  C28 UNL     1       0.737   7.920  15.777  1.00  0.00     0.177 C 
HETATM   21  C29 UNL     1      -0.076   9.195  15.438  1.00  0.00     0.162 C 
ENDROOT
BRANCH   1  22
HETATM   22  C7  UNL     1      -6.881   5.173  14.281  1.00  0.00    -0.014 C 
HETATM   23  C8  UNL     1      -7.593   3.967  13.642  1.00  0.00     0.010 C 
BRANCH  22  24
HETATM   24  C6  UNL     1      -7.246   5.280  15.779  1.00  0.00     0.008 C 
BRANCH  24  25
HETATM   25  C5  UNL     1      -7.727   6.667  16.224  1.00  0.00     0.028 C 
BRANCH  25  26
HETATM   26  C4  UNL     1      -9.113   6.947  15.705  1.00  0.00    -0.025 C 
HETATM   27  C2  UNL     1      -9.636   8.133  15.333  1.00  0.00    -0.091 C 
HETATM   28  C1  UNL     1      -8.904   9.446  15.335  1.00  0.00     0.042 C 
HETATM   29  C3  UNL     1     -11.059   8.222  14.847  1.00  0.00     0.042 C 
ENDBRANCH  25  26
ENDBRANCH  24  25
ENDBRANCH  22  24
ENDBRANCH   1  22
BRANCH  21  30
HETATM   30  O3  UNL     1      -0.774   9.675  16.589  1.00  0.00    -0.392 OA
HETATM   31  H48 UNL     1      -1.155  10.543  16.384  1.00  0.00     0.210 HD
ENDBRANCH  21  30
BRANCH  20  32
HETATM   32  O2  UNL     1       0.032   6.995  16.613  1.00  0.00    -0.390 OA
HETATM   33  H46 UNL     1       0.576   6.189  16.654  1.00  0.00     0.210 HD
ENDBRANCH  20  32
BRANCH  19  34
HETATM   34  O1  UNL     1       2.416   6.463  14.837  1.00  0.00    -0.393 OA
HETATM   35  H44 UNL     1       3.120   7.116  15.001  1.00  0.00     0.210 HD
ENDBRANCH  19  34
TORSDOF 7
ENDMDL
