MODEL 1
REMARK minimizedAffinity -6.59658575
REMARK CNNscore 0.411862731
REMARK CNNaffinity 5.61449766
REMARK  11 active torsions:
REMARK  status: ('A' for Active; 'I' for Inactive)
REMARK    1  A    between atoms: C3_4  and  O2_5 
REMARK    2  A    between atoms: O2_5  and  C4_6 
REMARK    3  A    between atoms: C7_9  and  C8_10 
REMARK    4  A    between atoms: N1_11  and  C9_13 
REMARK    5  A    between atoms: C9_13  and  C10_14 
REMARK    6  A    between atoms: C10_14  and  O3_15 
REMARK    7  A    between atoms: C16_21  and  C17_22 
REMARK    8  A    between atoms: C23_30  and  O6_31 
REMARK    9  A    between atoms: C27_35  and  O7_36 
REMARK   10  A    between atoms: C30_39  and  O8_40 
REMARK   11  A    between atoms: C31_41  and  O9_42 
ROOT
HETATM    1  C4  UNL     1      -0.094  54.318  -4.707  1.00  0.00     0.127 C 
HETATM    2  C5  UNL     1       1.065  53.329  -4.785  1.00  0.00     0.033 C 
HETATM    3  C6  UNL     1       0.864  52.324  -5.915  1.00  0.00     0.021 C 
HETATM    4  C7  UNL     1       0.694  52.972  -7.327  1.00  0.00     0.026 C 
HETATM    5  C11 UNL     1       2.034  53.620  -7.836  1.00  0.00     0.009 C 
HETATM    6  C12 UNL     1       3.199  52.646  -7.999  1.00  0.00     0.007 C 
HETATM    7  C13 UNL     1       4.533  53.380  -8.124  1.00  0.00     0.013 C 
HETATM    8  C14 UNL     1       4.509  54.704  -8.927  1.00  0.00    -0.005 C 
HETATM    9  C15 UNL     1       5.816  54.723  -9.771  1.00  0.00     0.019 C 
HETATM   10  C16 UNL     1       4.416  55.990  -8.036  1.00  0.00     0.028 C 
HETATM   11  C21 UNL     1       3.938  57.094  -9.001  1.00  0.00     0.013 C 
HETATM   12  C22 UNL     1       3.311  56.372 -10.197  1.00  0.00     0.040 C 
HETATM   13  C23 UNL     1       3.234  54.881  -9.818  1.00  0.00     0.070 C 
HETATM   14  C24 UNL     1       1.870  54.400  -9.172  1.00  0.00     0.026 C 
HETATM   15  C25 UNL     1       0.772  55.466  -9.037  1.00  0.00     0.011 C 
HETATM   16  C26 UNL     1      -0.551  54.887  -8.545  1.00  0.00     0.039 C 
HETATM   17  C27 UNL     1      -0.440  54.057  -7.254  1.00  0.00     0.073 C 
HETATM   18  C28 UNL     1      -0.235  55.035  -6.058  1.00  0.00     0.071 C 
ENDROOT
BRANCH   1  19
HETATM   19  O2  UNL     1      -1.355  53.692  -4.443  1.00  0.00    -0.356 OA
BRANCH  19  20
HETATM   20  C3  UNL     1      -2.376  54.566  -3.960  1.00  0.00     0.263 C 
HETATM   21  O1  UNL     1      -1.768  55.588  -3.173  1.00  0.00    -0.354 OA
HETATM   22  C2  UNL     1      -2.721  56.515  -2.646  1.00  0.00     0.151 C 
HETATM   23  C1  UNL     1      -1.930  57.609  -1.934  1.00  0.00     0.042 C 
HETATM   24  C31 UNL     1      -3.689  55.798  -1.689  1.00  0.00     0.175 C 
HETATM   25  C30 UNL     1      -4.342  54.607  -2.407  1.00  0.00     0.154 C 
HETATM   26  C29 UNL     1      -3.303  53.728  -3.082  1.00  0.00     0.095 C 
BRANCH  24  27
HETATM   27  O9  UNL     1      -4.734  56.663  -1.239  1.00  0.00    -0.390 OA
HETATM   28  H47 UNL     1      -4.328  57.341  -0.672  1.00  0.00     0.210 HD
ENDBRANCH  24  27
BRANCH  25  29
HETATM   29  O8  UNL     1      -5.261  55.092  -3.396  1.00  0.00    -0.393 OA
HETATM   30  H45 UNL     1      -5.806  55.757  -2.922  1.00  0.00     0.210 HD
ENDBRANCH  25  29
ENDBRANCH  19  20
ENDBRANCH   1  19
BRANCH  17  31
HETATM   31  O7  UNL     1      -1.719  53.419  -7.083  1.00  0.00    -0.389 OA
HETATM   32  H39 UNL     1      -1.847  53.255  -6.124  1.00  0.00     0.210 HD
ENDBRANCH  17  31
BRANCH   4  33
HETATM   33  C8  UNL     1       0.308  51.790  -8.231  1.00  0.00     0.068 C 
HETATM   34  N1  UNL     1      -0.604  51.871  -9.139  1.00  0.00    -0.399 N 
ATOM     35  H1  UNL     1      -1.103  52.736  -9.345  1.00  0.00     0.158 HD
BRANCH  34  36
HETATM   36  C9  UNL     1      -0.866  50.616  -9.853  1.00  0.00     0.144 C 
BRANCH  36  37
HETATM   37  C10 UNL     1      -1.464  50.975 -11.216  1.00  0.00     0.183 C 
BRANCH  37  38
HETATM   38  O3  UNL     1      -2.518  50.064 -11.525  1.00  0.00    -0.399 OA
HETATM   39  H16 UNL     1      -3.123  50.106 -10.752  1.00  0.00     0.209 HD
ENDBRANCH  37  38
ENDBRANCH  36  37
ENDBRANCH  34  36
ENDBRANCH   4  33
BRANCH  13  40
HETATM   40  O6  UNL     1       3.407  54.116 -11.018  1.00  0.00    -0.389 OA
HETATM   41  H33 UNL     1       2.639  54.282 -11.595  1.00  0.00     0.210 HD
ENDBRANCH  13  40
BRANCH  10  42
HETATM   42  C17 UNL     1       5.592  56.359  -7.175  1.00  0.00    -0.045 A 
HETATM   43  C18 UNL     1       6.685  55.613  -7.010  1.00  0.00     0.087 A 
HETATM   44  C19 UNL     1       7.562  56.316  -6.078  1.00  0.00     0.283 A 
HETATM   45  O4  UNL     1       8.645  55.908  -5.700  1.00  0.00    -0.260 OA
HETATM   46  O5  UNL     1       6.967  57.478  -5.702  1.00  0.00    -0.314 OA
HETATM   47  C20 UNL     1       5.688  57.576  -6.331  1.00  0.00     0.213 A 
ENDBRANCH  10  42
TORSDOF 11
ENDMDL
