MODEL 1
REMARK minimizedAffinity -7.05505753
REMARK CNNscore 0.566174805
REMARK CNNaffinity 6.97618151
REMARK  5 active torsions:
REMARK  status: ('A' for Active; 'I' for Inactive)
REMARK    1  A    between atoms: C2_2  and  C3_3 
REMARK    2  A    between atoms: C4_5  and  C5_6 
REMARK    3  A    between atoms: C5_6  and  C6_7 
REMARK    4  A    between atoms: C6_7  and  C7_8 
REMARK    5  A    between atoms: C7_8  and  C9_10 
ROOT
HETATM    1  C9  UNL     1       2.287  50.122 -11.147  1.00  0.00    -0.002 C 
HETATM    2  C10 UNL     1       3.712  49.524 -11.218  1.00  0.00     0.007 C 
HETATM    3  C11 UNL     1       4.674  50.612 -10.684  1.00  0.00     0.015 C 
HETATM    4  C12 UNL     1       3.766  51.651  -9.989  1.00  0.00    -0.005 C 
HETATM    5  C13 UNL     1       3.473  51.118  -8.552  1.00  0.00     0.021 C 
HETATM    6  C14 UNL     1       4.231  53.084  -9.769  1.00  0.00    -0.000 C 
HETATM    7  C15 UNL     1       3.351  54.119  -9.735  1.00  0.00    -0.060 C 
HETATM    8  C16 UNL     1       1.855  53.884 -10.022  1.00  0.00     0.036 C 
HETATM    9  C17 UNL     1       1.407  52.447 -10.361  1.00  0.00     0.015 C 
HETATM   10  C18 UNL     1       2.546  51.646 -10.993  1.00  0.00    -0.028 C 
HETATM   11  C19 UNL     1       2.906  52.299 -12.362  1.00  0.00     0.016 C 
HETATM   12  C20 UNL     1       3.768  55.585  -9.458  1.00  0.00    -0.014 C 
HETATM   13  C21 UNL     1       3.718  56.343 -10.815  1.00  0.00     0.020 C 
HETATM   14  C22 UNL     1       2.762  56.268  -8.485  1.00  0.00     0.021 C 
HETATM   15  C23 UNL     1       3.378  57.411  -7.698  1.00  0.00     0.080 C 
HETATM   16  C24 UNL     1       4.443  56.859  -6.778  1.00  0.00     0.135 C 
HETATM   17  O2  UNL     1       4.579  57.323  -5.645  1.00  0.00    -0.297 OA
HETATM   18  C25 UNL     1       5.337  55.726  -7.319  1.00  0.00     0.018 C 
HETATM   19  C26 UNL     1       6.782  56.048  -6.872  1.00  0.00     0.023 C 
HETATM   20  C27 UNL     1       4.908  54.422  -6.630  1.00  0.00     0.023 C 
HETATM   21  C28 UNL     1       5.233  55.717  -8.888  1.00  0.00     0.020 C 
HETATM   22  C29 UNL     1       6.179  54.747  -9.602  1.00  0.00     0.090 C 
HETATM   23  C30 UNL     1       5.688  53.328  -9.552  1.00  0.00     0.157 C 
HETATM   24  O3  UNL     1       6.475  52.401  -9.378  1.00  0.00    -0.293 OA
ENDROOT
BRANCH   1  25
HETATM   25  C7  UNL     1       1.212  49.566 -12.119  1.00  0.00    -0.014 C 
HETATM   26  C8  UNL     1       0.419  48.443 -11.419  1.00  0.00     0.010 C 
BRANCH  25  27
HETATM   27  C6  UNL     1       1.569  49.126 -13.555  1.00  0.00     0.008 C 
BRANCH  27  28
HETATM   28  C5  UNL     1       1.618  50.203 -14.640  1.00  0.00     0.028 C 
BRANCH  28  29
HETATM   29  C4  UNL     1       0.697  49.855 -15.778  1.00  0.00    -0.017 C 
HETATM   30  C2  UNL     1       0.435  50.595 -16.871  1.00  0.00    -0.028 C 
HETATM   31  C1  UNL     1       1.030  51.919 -17.229  1.00  0.00     0.051 C 
BRANCH  30  32
HETATM   32  C3  UNL     1      -0.538  50.047 -17.867  1.00  0.00     0.265 C 
HETATM   33  O1  UNL     1      -0.379  50.096 -19.080  1.00  0.00    -0.302 OA
ENDBRANCH  30  32
ENDBRANCH  28  29
ENDBRANCH  27  28
ENDBRANCH  25  27
ENDBRANCH   1  25
TORSDOF 5
ENDMDL
