MODEL 1
REMARK minimizedAffinity -8.57575226
REMARK CNNscore 0.483873725
REMARK CNNaffinity 7.38298225
REMARK  18 active torsions:
REMARK  status: ('A' for Active; 'I' for Inactive)
REMARK    1  A    between atoms: C19_20  and  O2_21 
REMARK    2  A    between atoms: C19_20  and  C20_22 
REMARK    3  A    between atoms: C20_22  and  C21_24 
REMARK    4  A    between atoms: C21_24  and  O4_25 
REMARK    5  A    between atoms: O4_25  and  C22_26 
REMARK    6  A    between atoms: C22_26  and  C23_28 
REMARK    7  A    between atoms: C23_28  and  C24_29 
REMARK    8  A    between atoms: C24_29  and  C25_30 
REMARK       I    between atoms: C25_30  and  N1_32 
REMARK    9  A    between atoms: N1_32  and  C26_33 
REMARK   10  A    between atoms: C26_33  and  C27_34 
REMARK   11  A    between atoms: C27_34  and  C28_35 
REMARK   12  A    between atoms: C28_35  and  C29_36 
REMARK   13  A    between atoms: C29_36  and  C30_37 
REMARK   14  A    between atoms: C30_37  and  C31_38 
REMARK       I    between atoms: C31_38  and  N2_40 
REMARK   15  A    between atoms: N2_40  and  C32_41 
REMARK   16  A    between atoms: C32_41  and  C33_42 
REMARK   17  A    between atoms: C36_45  and  C37_46 
REMARK   18  A    between atoms: C37_46  and  O9_48 
ROOT
HETATM    1  C22 UNL     1      -3.643  52.270 -12.313  1.00  0.00     0.259 C 
HETATM    2  O5  UNL     1      -4.443  53.170 -12.092  1.00  0.00    -0.265 OA
ENDROOT
BRANCH   1   3
HETATM    3  O4  UNL     1      -3.200  51.387 -11.376  1.00  0.00    -0.314 OA
BRANCH   3   4
HETATM    4  C21 UNL     1      -3.436  51.796 -10.023  1.00  0.00     0.260 C 
BRANCH   4   5
HETATM    5  C20 UNL     1      -2.137  52.038  -9.250  1.00  0.00     0.185 C 
HETATM    6  O3  UNL     1      -1.878  51.409  -8.222  1.00  0.00    -0.292 OA
BRANCH   5   7
HETATM    7  C19 UNL     1      -1.207  53.151  -9.786  1.00  0.00     0.128 C 
HETATM    8  C14 UNL     1      -0.082  53.657  -8.801  1.00  0.00    -0.002 C 
HETATM    9  C13 UNL     1       1.258  52.932  -8.984  1.00  0.00     0.013 C 
HETATM   10  C15 UNL     1      -0.533  53.529  -7.327  1.00  0.00     0.019 C 
HETATM   11  C16 UNL     1       0.061  55.185  -9.130  1.00  0.00     0.002 C 
HETATM   12  C12 UNL     1       2.452  53.586  -8.284  1.00  0.00     0.007 C 
HETATM   13  C11 UNL     1       2.418  55.128  -8.167  1.00  0.00     0.002 C 
HETATM   14  C2  UNL     1       3.849  55.782  -8.152  1.00  0.00    -0.016 C 
HETATM   15  C10 UNL     1       1.497  55.751  -9.254  1.00  0.00    -0.004 C 
HETATM   16  C1  UNL     1       3.724  57.282  -7.751  1.00  0.00     0.020 C 
HETATM   17  C3  UNL     1       4.784  55.159  -7.069  1.00  0.00     0.022 C 
HETATM   18  C7  UNL     1       4.429  55.686  -9.560  1.00  0.00    -0.068 C 
HETATM   19  C4  UNL     1       5.679  54.018  -7.524  1.00  0.00     0.084 C 
HETATM   20  C5  UNL     1       6.363  54.344  -8.827  1.00  0.00     0.149 C 
HETATM   21  O1  UNL     1       7.494  53.947  -9.095  1.00  0.00    -0.293 OA
HETATM   22  C6  UNL     1       5.589  55.074  -9.855  1.00  0.00     0.053 C 
HETATM   23  C8  UNL     1       3.573  56.271 -10.661  1.00  0.00     0.035 C 
HETATM   24  C9  UNL     1       2.153  55.687 -10.648  1.00  0.00     0.010 C 
HETATM   25  C17 UNL     1      -0.878  55.459 -10.308  1.00  0.00     0.009 C 
HETATM   26  C18 UNL     1      -1.987  54.435 -10.116  1.00  0.00     0.047 C 
BRANCH   7  27
HETATM   27  O2  UNL     1      -0.629  52.683 -11.014  1.00  0.00    -0.381 OA
HETATM   28  H27 UNL     1      -1.311  52.716 -11.708  1.00  0.00     0.211 HD
ENDBRANCH   7  27
ENDBRANCH   5   7
ENDBRANCH   4   5
ENDBRANCH   3   4
ENDBRANCH   1   3
BRANCH   1  29
HETATM   29  C23 UNL     1      -3.111  51.954 -13.684  1.00  0.00     0.120 C 
BRANCH  29  30
HETATM   30  C24 UNL     1      -1.772  51.225 -13.662  1.00  0.00     0.112 C 
BRANCH  30  31
HETATM   31  C25 UNL     1      -1.832  49.950 -14.481  1.00  0.00     0.217 C 
HETATM   32  O6  UNL     1      -2.741  49.130 -14.387  1.00  0.00    -0.274 OA
HETATM   33  N1  UNL     1      -0.775  49.810 -15.354  1.00  0.00    -0.361 N 
HETATM   34  H34 UNL     1      -0.125  50.578 -15.469  1.00  0.00     0.162 HD
BRANCH  33  35
HETATM   35  C26 UNL     1      -0.706  48.708 -16.293  1.00  0.00     0.122 C 
BRANCH  35  36
HETATM   36  C27 UNL     1      -0.859  49.129 -17.758  1.00  0.00     0.020 C 
BRANCH  36  37
HETATM   37  C28 UNL     1      -2.097  49.985 -18.055  1.00  0.00     0.002 C 
BRANCH  37  38
HETATM   38  C29 UNL     1      -1.789  51.448 -18.383  1.00  0.00     0.009 C 
BRANCH  38  39
HETATM   39  C30 UNL     1      -0.288  51.738 -18.419  1.00  0.00     0.103 C 
BRANCH  39  40
HETATM   40  C31 UNL     1       0.105  52.789 -19.444  1.00  0.00     0.217 C 
HETATM   41  O7  UNL     1      -0.019  53.997 -19.271  1.00  0.00    -0.274 OA
HETATM   42  N2  UNL     1       0.623  52.230 -20.597  1.00  0.00    -0.357 N 
HETATM   43  H45 UNL     1       0.864  51.249 -20.597  1.00  0.00     0.162 HD
BRANCH  42  44
HETATM   44  C32 UNL     1       1.128  53.049 -21.674  1.00  0.00     0.161 C 
BRANCH  44  45
HETATM   45  C33 UNL     1       0.347  52.829 -22.943  1.00  0.00    -0.040 A 
HETATM   46  C34 UNL     1      -0.920  52.228 -22.916  1.00  0.00     0.010 A 
HETATM   47  C35 UNL     1      -1.628  52.018 -24.104  1.00  0.00     0.019 A 
HETATM   48  C36 UNL     1      -1.077  52.401 -25.332  1.00  0.00     0.037 A 
HETATM   49  C38 UNL     1       0.191  52.990 -25.366  1.00  0.00     0.019 A 
HETATM   50  C39 UNL     1       0.899  53.195 -24.179  1.00  0.00     0.010 A 
BRANCH  48  51
HETATM   51  C37 UNL     1      -1.867  52.161 -26.564  1.00  0.00     0.176 C 
HETATM   52  O8  UNL     1      -1.513  51.497 -27.520  1.00  0.00    -0.646 OA
BRANCH  51  53
HETATM   53  O9  UNL     1      -3.072  52.761 -26.537  1.00  0.00    -0.773 OA
HETATM   54  H50 UNL     1      -3.481  52.505 -27.393  1.00  0.00     0.167 HD
ENDBRANCH  51  53
ENDBRANCH  48  51
ENDBRANCH  44  45
ENDBRANCH  42  44
ENDBRANCH  39  40
ENDBRANCH  38  39
ENDBRANCH  37  38
ENDBRANCH  36  37
ENDBRANCH  35  36
ENDBRANCH  33  35
ENDBRANCH  30  31
ENDBRANCH  29  30
ENDBRANCH   1  29
TORSDOF 18
ENDMDL
