MODEL 1
REMARK minimizedAffinity -8.01565933
REMARK CNNscore 0.639971137
REMARK CNNaffinity 7.20002985
REMARK  16 active torsions:
REMARK  status: ('A' for Active; 'I' for Inactive)
REMARK    1  A    between atoms: C2_2  and  C3_3 
REMARK    2  A    between atoms: C4_4  and  C6_6 
REMARK    3  A    between atoms: C6_6  and  C7_7 
REMARK    4  A    between atoms: C7_7  and  C9_9 
REMARK    5  A    between atoms: C9_9  and  C10_10 
REMARK    6  A    between atoms: C9_9  and  O3_30 
REMARK    7  A    between atoms: C10_10  and  C11_11 
REMARK    8  A    between atoms: C23_23  and  C25_25 
REMARK    9  A    between atoms: C25_25  and  C26_27 
REMARK   10  A    between atoms: C26_27  and  C27_28 
REMARK   11  A    between atoms: O3_30  and  C28_31 
REMARK   12  A    between atoms: C29_33  and  C30_34 
REMARK   13  A    between atoms: C30_34  and  O5_35 
REMARK   14  A    between atoms: C31_36  and  O6_37 
REMARK   15  A    between atoms: C32_38  and  O7_39 
REMARK   16  A    between atoms: C33_40  and  O8_41 
ROOT
HETATM    1  C9  UNL     1       2.918   7.387  11.814  1.00  0.00     0.129 C 
ENDROOT
BRANCH   1   2
HETATM    2  C7  UNL     1       2.960   6.621  10.465  1.00  0.00     0.014 C 
HETATM    3  C8  UNL     1       2.484   5.168  10.590  1.00  0.00     0.012 C 
BRANCH   2   4
HETATM    4  C6  UNL     1       2.230   7.374   9.337  1.00  0.00     0.040 C 
BRANCH   4   5
HETATM    5  C4  UNL     1       2.334   6.742   7.963  1.00  0.00    -0.087 C 
HETATM    6  C3  UNL     1       2.986   5.572   7.801  1.00  0.00    -0.025 C 
HETATM    7  C5  UNL     1       1.597   7.454   6.860  1.00  0.00     0.043 C 
BRANCH   6   8
HETATM    8  C2  UNL     1       3.153   4.781   6.532  1.00  0.00     0.023 C 
HETATM    9  C1  UNL     1       4.045   3.568   6.762  1.00  0.00     0.009 C 
ENDBRANCH   6   8
ENDBRANCH   4   5
ENDBRANCH   2   4
ENDBRANCH   1   2
BRANCH   1  10
HETATM   10  C10 UNL     1       1.881   6.969  12.885  1.00  0.00     0.042 C 
BRANCH  10  11
HETATM   11  C11 UNL     1       0.488   7.675  12.923  1.00  0.00     0.032 C 
HETATM   12  C12 UNL     1       0.389   8.949  13.751  1.00  0.00    -0.082 C 
HETATM   13  C13 UNL     1       1.581   9.596  14.397  1.00  0.00     0.043 C 
HETATM   14  C14 UNL     1      -0.812   9.541  13.852  1.00  0.00    -0.019 C 
HETATM   15  C15 UNL     1      -2.078   8.910  13.337  1.00  0.00     0.014 C 
HETATM   16  C16 UNL     1      -3.283   9.634  13.984  1.00  0.00     0.013 C 
HETATM   17  C22 UNL     1      -2.075   7.394  13.650  1.00  0.00     0.013 C 
HETATM   18  C17 UNL     1      -4.596   8.845  13.995  1.00  0.00    -0.018 C 
HETATM   19  C18 UNL     1      -4.961   8.399  15.409  1.00  0.00     0.010 C 
HETATM   20  C19 UNL     1      -4.578   7.682  13.008  1.00  0.00     0.009 C 
HETATM   21  C20 UNL     1      -3.391   6.708  13.147  1.00  0.00    -0.012 C 
HETATM   22  C21 UNL     1      -3.774   5.481  13.986  1.00  0.00     0.010 C 
HETATM   23  C23 UNL     1      -0.701   6.664  13.270  1.00  0.00     0.029 C 
HETATM   24  C24 UNL     1      -0.296   5.808  14.503  1.00  0.00     0.025 C 
BRANCH  23  25
HETATM   25  C25 UNL     1      -0.880   5.713  12.053  1.00  0.00     0.142 C 
HETATM   26  O1  UNL     1      -0.828   6.133  10.892  1.00  0.00    -0.297 OA
BRANCH  25  27
HETATM   27  C26 UNL     1      -1.150   4.246  12.299  1.00  0.00     0.148 C 
BRANCH  27  28
HETATM   28  C27 UNL     1      -0.084   3.356  11.732  1.00  0.00     0.238 C 
HETATM   29  O2  UNL     1      -0.323   2.216  11.336  1.00  0.00    -0.306 OA
ENDBRANCH  27  28
ENDBRANCH  25  27
ENDBRANCH  23  25
ENDBRANCH  10  11
ENDBRANCH   1  10
BRANCH   1  30
HETATM   30  O3  UNL     1       4.214   7.177  12.425  1.00  0.00    -0.353 OA
BRANCH  30  31
HETATM   31  C28 UNL     1       4.742   8.372  13.020  1.00  0.00     0.292 C 
HETATM   32  O4  UNL     1       5.984   8.691  12.399  1.00  0.00    -0.348 OA
HETATM   33  C29 UNL     1       6.649   9.852  12.946  1.00  0.00     0.179 C 
HETATM   34  C31 UNL     1       6.087  10.335  14.295  1.00  0.00     0.180 C 
HETATM   35  C32 UNL     1       5.777   9.157  15.227  1.00  0.00     0.183 C 
HETATM   36  C33 UNL     1       4.953   8.067  14.522  1.00  0.00     0.204 C 
BRANCH  33  37
HETATM   37  C30 UNL     1       8.133   9.469  13.077  1.00  0.00     0.198 C 
BRANCH  37  38
HETATM   38  O5  UNL     1       8.935  10.317  12.254  1.00  0.00    -0.398 OA
HETATM   39  H48 UNL     1       8.455  10.402  11.407  1.00  0.00     0.209 HD
ENDBRANCH  37  38
ENDBRANCH  33  37
BRANCH  34  40
HETATM   40  O6  UNL     1       4.870  11.079  14.085  1.00  0.00    -0.390 OA
HETATM   41  H50 UNL     1       4.501  11.197  14.987  1.00  0.00     0.210 HD
ENDBRANCH  34  40
BRANCH  35  42
HETATM   42  O7  UNL     1       5.046   9.669  16.358  1.00  0.00    -0.390 OA
HETATM   43  H52 UNL     1       5.142   9.005  17.072  1.00  0.00     0.210 HD
ENDBRANCH  35  42
BRANCH  36  44
HETATM   44  O8  UNL     1       5.681   6.827  14.667  1.00  0.00    -0.388 OA
HETATM   45  H54 UNL     1       5.382   6.260  13.924  1.00  0.00     0.210 HD
ENDBRANCH  36  44
ENDBRANCH  30  31
ENDBRANCH   1  30
TORSDOF 16
ENDMDL
