MODEL 1
REMARK minimizedAffinity -6.45615053
REMARK CNNscore 0.505743861
REMARK CNNaffinity 7.08265877
REMARK  17 active torsions:
REMARK  status: ('A' for Active; 'I' for Inactive)
REMARK    1  A    between atoms: C2_2  and  C3_3 
REMARK    2  A    between atoms: C2_2  and  C26_32 
REMARK    3  A    between atoms: C4_4  and  C5_5 
REMARK    4  A    between atoms: C6_6  and  C7_7 
REMARK    5  A    between atoms: C6_6  and  C9_11 
REMARK    6  A    between atoms: C7_7  and  O1_8 
REMARK    7  A    between atoms: O1_8  and  C8_9 
REMARK    8  A    between atoms: C8_9  and  O2_10 
REMARK    9  A    between atoms: C13_15  and  O3_16 
REMARK   10  A    between atoms: C14_17  and  C15_18 
REMARK   11  A    between atoms: C15_18  and  C16_19 
REMARK   12  A    between atoms: C16_19  and  C17_20 
REMARK   13  A    between atoms: C17_20  and  O4_21 
REMARK   14  A    between atoms: C19_23  and  C21_25 
REMARK   15  A    between atoms: C24_29  and  O6_31 
REMARK   16  A    between atoms: C26_32  and  C27_33 
REMARK   17  A    between atoms: C27_33  and  C28_34 
ROOT
HETATM    1  C9  UNL     1      -4.266   6.115  13.527  1.00  0.00     0.046 C 
HETATM    2  C10 UNL     1      -4.902   7.172  12.612  1.00  0.00     0.013 C 
HETATM    3  C11 UNL     1      -5.929   7.901  13.475  1.00  0.00     0.017 C 
HETATM    4  C12 UNL     1      -6.450   6.857  14.509  1.00  0.00     0.024 C 
HETATM    5  C13 UNL     1      -5.085   6.156  14.854  1.00  0.00     0.138 C 
HETATM    6  C14 UNL     1      -7.460   5.836  13.767  1.00  0.00     0.029 C 
HETATM    7  C18 UNL     1      -8.916   6.275  13.956  1.00  0.00    -0.066 C 
HETATM    8  C19 UNL     1      -9.768   6.667  12.973  1.00  0.00    -0.021 C 
HETATM    9  C20 UNL     1     -11.227   7.004  13.170  1.00  0.00     0.052 C 
HETATM   10  C22 UNL     1      -9.335   6.277  15.425  1.00  0.00     0.038 C 
HETATM   11  C23 UNL     1      -8.194   6.661  16.375  1.00  0.00     0.042 C 
HETATM   12  C24 UNL     1      -7.179   7.604  15.717  1.00  0.00     0.065 C 
HETATM   13  C25 UNL     1      -7.881   8.925  15.322  1.00  0.00     0.047 C 
ENDROOT
BRANCH   1  14
HETATM   14  C6  UNL     1      -2.751   6.099  13.728  1.00  0.00    -0.050 C 
HETATM   15  C5  UNL     1      -1.906   7.123  13.987  1.00  0.00     0.005 C 
BRANCH  15  16
HETATM   16  C4  UNL     1      -2.202   8.505  14.300  1.00  0.00     0.001 C 
HETATM   17  C3  UNL     1      -1.956   9.043  15.507  1.00  0.00     0.006 C 
BRANCH  17  18
HETATM   18  C2  UNL     1      -2.259  10.413  15.931  1.00  0.00    -0.067 C 
HETATM   19  C1  UNL     1      -2.536  11.322  14.980  1.00  0.00     0.019 C 
BRANCH  18  20
HETATM   20  C26 UNL     1      -2.232  10.729  17.421  1.00  0.00     0.041 C 
BRANCH  20  21
HETATM   21  C27 UNL     1      -1.104  11.622  17.982  1.00  0.00     0.032 C 
BRANCH  21  22
HETATM   22  C28 UNL     1      -0.193  10.904  18.945  1.00  0.00    -0.024 C 
HETATM   23  C29 UNL     1       0.604  11.442  19.887  1.00  0.00    -0.091 C 
HETATM   24  C30 UNL     1       0.769  12.914  20.151  1.00  0.00     0.042 C 
HETATM   25  C31 UNL     1       1.434  10.560  20.785  1.00  0.00     0.042 C 
ENDBRANCH  21  22
ENDBRANCH  20  21
ENDBRANCH  18  20
ENDBRANCH  17  18
ENDBRANCH  15  16
BRANCH  14  26
HETATM   26  C7  UNL     1      -2.184   4.682  13.633  1.00  0.00     0.205 C 
BRANCH  26  27
HETATM   27  O1  UNL     1      -1.868   4.265  12.307  1.00  0.00    -0.363 OA
BRANCH  27  28
HETATM   28  C8  UNL     1      -2.848   3.439  11.691  1.00  0.00     0.334 C 
BRANCH  28  29
HETATM   29  O2  UNL     1      -2.305   2.310  11.032  1.00  0.00    -0.377 OA
HETATM   30  H10 UNL     1      -2.282   2.561  10.086  1.00  0.00     0.212 HD
ENDBRANCH  28  29
ENDBRANCH  27  28
ENDBRANCH  26  27
ENDBRANCH  14  26
ENDBRANCH   1  14
BRANCH   5  31
HETATM   31  O3  UNL     1      -4.341   6.813  15.887  1.00  0.00    -0.394 OA
HETATM   32  H17 UNL     1      -4.052   7.680  15.537  1.00  0.00     0.210 HD
ENDBRANCH   5  31
BRANCH   6  33
HETATM   33  C15 UNL     1      -7.313   4.333  14.161  1.00  0.00     0.012 C 
BRANCH  33  34
HETATM   34  C16 UNL     1      -7.811   3.304  13.127  1.00  0.00     0.027 C 
BRANCH  34  35
HETATM   35  C17 UNL     1      -6.713   2.710  12.252  1.00  0.00     0.164 C 
BRANCH  35  36
HETATM   36  O4  UNL     1      -6.998   1.351  11.948  1.00  0.00    -0.401 OA
HETATM   37  H25 UNL     1      -7.748   1.348  11.329  1.00  0.00     0.209 HD
ENDBRANCH  35  36
ENDBRANCH  34  35
ENDBRANCH  33  34
ENDBRANCH   6  33
BRANCH  12  38
HETATM   38  O6  UNL     1      -6.275   8.031  16.742  1.00  0.00    -0.389 OA
HETATM   39  H37 UNL     1      -5.631   7.312  16.910  1.00  0.00     0.210 HD
ENDBRANCH  12  38
BRANCH   8  40
HETATM   40  C21 UNL     1      -9.347   6.817  11.541  1.00  0.00     0.265 C 
HETATM   41  O5  UNL     1      -9.235   5.864  10.779  1.00  0.00    -0.302 OA
ENDBRANCH   8  40
TORSDOF 17
ENDMDL
