MODEL 1
REMARK minimizedAffinity -8.32674217
REMARK CNNscore 0.544414759
REMARK CNNaffinity 7.15944433
REMARK  11 active torsions:
REMARK  status: ('A' for Active; 'I' for Inactive)
REMARK    1  A    between atoms: C3_3  and  O1_4 
REMARK    2  A    between atoms: N1_14  and  O2_16 
REMARK    3  A    between atoms: O2_16  and  C13_17 
REMARK    4  A    between atoms: C13_17  and  C14_18 
REMARK       I    between atoms: C14_18  and  N2_20 
REMARK    5  A    between atoms: N2_20  and  C15_21 
REMARK    6  A    between atoms: C15_21  and  C16_22 
REMARK    7  A    between atoms: C15_21  and  C17_25 
REMARK    8  A    between atoms: C16_22  and  O5_24 
REMARK    9  A    between atoms: C17_25  and  O6_26 
REMARK   10  A    between atoms: C17_25  and  C18_27 
REMARK   11  A    between atoms: C22_31  and  N3_32 
ROOT
HETATM    1  C1  UNL     1      -4.258   5.459  13.564  1.00  0.00     0.015 C 
HETATM    2  C2  UNL     1      -5.452   5.325  13.567  1.00  0.00    -0.078 C 
HETATM    3  C3  UNL     1      -6.914   5.155  13.558  1.00  0.00     0.128 C 
HETATM    4  C4  UNL     1      -7.534   5.562  12.216  1.00  0.00     0.052 C 
HETATM    5  C5  UNL     1      -8.968   6.001  12.533  1.00  0.00     0.010 C 
HETATM    6  C6  UNL     1      -9.126   5.935  14.066  1.00  0.00     0.002 C 
HETATM    7  C7  UNL     1     -10.106   6.962  14.678  1.00  0.00    -0.004 C 
HETATM    8  C8  UNL     1     -11.491   6.872  14.014  1.00  0.00     0.010 C 
HETATM    9  C9  UNL     1     -12.483   7.843  14.642  1.00  0.00     0.035 C 
HETATM   10  C10 UNL     1     -11.955   9.257  14.602  1.00  0.00    -0.069 C 
HETATM   11  C11 UNL     1     -12.691  10.229  14.030  1.00  0.00     0.030 C 
HETATM   12  C12 UNL     1     -12.226  11.643  14.029  1.00  0.00     0.032 C 
HETATM   13  N1  UNL     1     -12.706  12.611  13.310  1.00  0.00    -0.271 N 
ATOM     14  H1  UNL     1     -12.361  13.571  13.342  1.00  0.00     0.194 HD
HETATM   15  C24 UNL     1     -11.098  11.979  14.976  1.00  0.00     0.060 C 
HETATM   16  C25 UNL     1     -10.033  10.898  14.883  1.00  0.00     0.020 C 
HETATM   17  C26 UNL     1     -10.570   9.476  15.227  1.00  0.00    -0.016 C 
HETATM   18  C27 UNL     1     -10.706   9.363  16.763  1.00  0.00     0.020 C 
HETATM   19  C28 UNL     1      -9.562   8.414  14.638  1.00  0.00     0.002 C 
HETATM   20  C29 UNL     1      -8.167   8.464  15.289  1.00  0.00     0.007 C 
HETATM   21  C30 UNL     1      -7.189   7.500  14.616  1.00  0.00     0.014 C 
HETATM   22  C31 UNL     1      -7.672   6.027  14.605  1.00  0.00     0.003 C 
HETATM   23  C32 UNL     1      -7.575   5.435  16.026  1.00  0.00     0.020 C 
ENDROOT
BRANCH   3  24
HETATM   24  O1  UNL     1      -7.208   3.772  13.767  1.00  0.00    -0.377 OA
HETATM   25  H2  UNL     1      -6.682   3.269  13.123  1.00  0.00     0.211 HD
ENDBRANCH   3  24
BRANCH  13  26
HETATM   26  O2  UNL     1     -13.755  12.180  12.481  1.00  0.00    -0.271 OA
BRANCH  26  27
HETATM   27  C13 UNL     1     -14.994  12.525  13.080  1.00  0.00     0.303 C 
BRANCH  27  28
HETATM   28  C14 UNL     1     -15.894  11.316  13.325  1.00  0.00     0.244 C 
HETATM   29  O3  UNL     1     -16.639  11.181  14.291  1.00  0.00    -0.271 OA
HETATM   30  N2  UNL     1     -15.791  10.350  12.346  1.00  0.00    -0.342 N 
HETATM   31  H16 UNL     1     -15.221  10.503  11.519  1.00  0.00     0.163 HD
BRANCH  30  32
HETATM   32  C15 UNL     1     -16.623   9.135  12.353  1.00  0.00     0.216 C 
BRANCH  32  33
HETATM   33  C16 UNL     1     -17.496   9.133  11.093  1.00  0.00     0.166 C 
HETATM   34  O4  UNL     1     -17.418   9.899  10.145  1.00  0.00    -0.648 OA
BRANCH  33  35
HETATM   35  O5  UNL     1     -18.420   8.140  11.070  1.00  0.00    -0.775 OA
HETATM   36  H18 UNL     1     -18.869   8.262  10.206  1.00  0.00     0.167 HD
ENDBRANCH  33  35
ENDBRANCH  32  33
BRANCH  32  37
HETATM   37  C17 UNL     1     -15.766   7.844  12.431  1.00  0.00     0.184 C 
BRANCH  37  38
HETATM   38  O6  UNL     1     -15.728   7.222  11.133  1.00  0.00    -0.388 OA
HETATM   39  H20 UNL     1     -16.219   6.384  11.191  1.00  0.00     0.210 HD
ENDBRANCH  37  38
BRANCH  37  40
HETATM   40  C18 UNL     1     -16.105   6.796  13.486  1.00  0.00    -0.025 A 
HETATM   41  C19 UNL     1     -16.066   7.185  14.841  1.00  0.00     0.010 A 
HETATM   42  C20 UNL     1     -16.360   6.285  15.871  1.00  0.00     0.003 A 
HETATM   43  C21 UNL     1     -16.707   4.972  15.569  1.00  0.00     0.036 A 
HETATM   44  C22 UNL     1     -16.766   4.571  14.230  1.00  0.00     0.103 A 
HETATM   45  C23 UNL     1     -16.476   5.475  13.193  1.00  0.00     0.045 A 
BRANCH  44  46
HETATM   46  N3  UNL     1     -17.138   3.188  13.905  1.00  0.00    -0.116 N 
HETATM   47  O7  UNL     1     -16.370   2.283  14.263  1.00  0.00    -0.532 OA
HETATM   48  O8  UNL     1     -18.199   3.005  13.290  1.00  0.00    -0.532 OA
ENDBRANCH  44  46
ENDBRANCH  37  40
ENDBRANCH  32  37
ENDBRANCH  30  32
ENDBRANCH  27  28
ENDBRANCH  26  27
ENDBRANCH  13  26
TORSDOF 11
ENDMDL
