MODEL 1
REMARK minimizedAffinity -8.54667759
REMARK CNNscore 0.765314698
REMARK CNNaffinity 6.94605684
REMARK  15 active torsions:
REMARK  status: ('A' for Active; 'I' for Inactive)
REMARK    1  A    between atoms: C2_2  and  O2_4 
REMARK    2  A    between atoms: O2_4  and  C3_5 
REMARK    3  A    between atoms: C3_5  and  C4_6 
REMARK    4  A    between atoms: C4_6  and  C5_8 
REMARK    5  A    between atoms: C5_8  and  O4_9 
REMARK    6  A    between atoms: O4_9  and  C6_10 
REMARK    7  A    between atoms: C6_10  and  C7_12 
REMARK    8  A    between atoms: C7_12  and  C8_13 
REMARK    9  A    between atoms: C8_13  and  C9_14 
REMARK       I    between atoms: C9_14  and  N1_16 
REMARK   10  A    between atoms: N1_16  and  C10_17 
REMARK   11  A    between atoms: C10_17  and  C11_18 
REMARK   12  A    between atoms: C11_18  and  C12_19 
REMARK   13  A    between atoms: C12_19  and  C13_20 
REMARK   14  A    between atoms: C13_20  and  C14_21 
REMARK   15  A    between atoms: C14_21  and  O8_23 
ROOT
HETATM    1  C3  UNL     1      -1.183   9.189  13.601  1.00  0.00     0.140 C 
HETATM    2  C15 UNL     1      -0.162   8.139  14.152  1.00  0.00     0.048 C 
HETATM    3  C16 UNL     1      -0.925   6.812  14.341  1.00  0.00     0.009 C 
HETATM    4  C17 UNL     1      -2.320   7.087  13.794  1.00  0.00     0.002 C 
HETATM    5  C18 UNL     1      -3.480   6.182  14.240  1.00  0.00    -0.004 C 
HETATM    6  C19 UNL     1      -3.220   4.677  14.033  1.00  0.00     0.010 C 
HETATM    7  C20 UNL     1      -4.159   4.007  13.033  1.00  0.00     0.035 C 
HETATM    8  C21 UNL     1      -5.623   4.335  13.225  1.00  0.00    -0.068 C 
HETATM    9  C22 UNL     1      -6.553   3.478  12.766  1.00  0.00     0.053 C 
HETATM   10  C23 UNL     1      -7.998   3.807  12.785  1.00  0.00     0.149 C 
HETATM   11  O9  UNL     1      -8.812   2.940  12.479  1.00  0.00    -0.293 OA
HETATM   12  C24 UNL     1      -8.426   5.194  13.201  1.00  0.00     0.084 C 
HETATM   13  C25 UNL     1      -7.279   6.201  13.142  1.00  0.00     0.022 C 
HETATM   14  C26 UNL     1      -5.981   5.698  13.825  1.00  0.00    -0.016 C 
HETATM   15  C27 UNL     1      -6.237   5.545  15.343  1.00  0.00     0.020 C 
HETATM   16  C28 UNL     1      -4.785   6.667  13.535  1.00  0.00     0.002 C 
HETATM   17  C29 UNL     1      -5.046   8.164  13.824  1.00  0.00     0.007 C 
HETATM   18  C30 UNL     1      -3.837   9.039  13.434  1.00  0.00     0.013 C 
HETATM   19  C31 UNL     1      -2.542   8.591  14.135  1.00  0.00    -0.001 C 
HETATM   20  C32 UNL     1      -2.707   8.831  15.667  1.00  0.00     0.019 C 
ENDROOT
BRANCH   1  21
HETATM   21  O2  UNL     1      -1.079   9.049  12.157  1.00  0.00    -0.301 OA
BRANCH  21  22
HETATM   22  C2  UNL     1       0.118   8.764  11.584  1.00  0.00     0.256 C 
HETATM   23  C1  UNL     1      -0.091   8.082  10.267  1.00  0.00     0.126 C 
HETATM   24  O1  UNL     1       1.209   8.998  12.075  1.00  0.00    -0.266 OA
ENDBRANCH  21  22
ENDBRANCH   1  21
BRANCH   1  25
HETATM   25  C4  UNL     1      -0.768  10.598  14.116  1.00  0.00     0.186 C 
HETATM   26  O3  UNL     1      -1.439  11.612  13.917  1.00  0.00    -0.292 OA
BRANCH  25  27
HETATM   27  C5  UNL     1       0.551  10.681  14.896  1.00  0.00     0.260 C 
BRANCH  27  28
HETATM   28  O4  UNL     1       0.445  11.486  16.072  1.00  0.00    -0.314 OA
BRANCH  28  29
HETATM   29  C6  UNL     1       0.722  10.817  17.224  1.00  0.00     0.259 C 
HETATM   30  O5  UNL     1       0.469   9.635  17.422  1.00  0.00    -0.265 OA
BRANCH  29  31
HETATM   31  C7  UNL     1       1.442  11.701  18.199  1.00  0.00     0.120 C 
BRANCH  31  32
HETATM   32  C8  UNL     1       1.077  11.297  19.618  1.00  0.00     0.112 C 
BRANCH  32  33
HETATM   33  C9  UNL     1       2.219  10.585  20.307  1.00  0.00     0.217 C 
HETATM   34  O6  UNL     1       2.746   9.570  19.869  1.00  0.00    -0.274 OA
HETATM   35  N1  UNL     1       2.605  11.200  21.480  1.00  0.00    -0.361 N 
HETATM   36  H10 UNL     1       2.200  12.095  21.721  1.00  0.00     0.162 HD
BRANCH  35  37
HETATM   37  C10 UNL     1       3.747  10.735  22.241  1.00  0.00     0.122 C 
BRANCH  37  38
HETATM   38  C11 UNL     1       4.985  11.582  21.950  1.00  0.00     0.020 C 
BRANCH  38  39
HETATM   39  C12 UNL     1       5.959  11.672  23.126  1.00  0.00     0.012 C 
BRANCH  39  40
HETATM   40  C13 UNL     1       6.964  12.816  22.996  1.00  0.00     0.110 C 
BRANCH  40  41
HETATM   41  C14 UNL     1       8.384  12.326  23.115  1.00  0.00     0.139 C 
HETATM   42  O7  UNL     1       8.765  11.188  23.321  1.00  0.00    -0.650 OA
BRANCH  41  43
HETATM   43  O8  UNL     1       9.273  13.324  22.945  1.00  0.00    -0.776 OA
HETATM   44  H19 UNL     1      10.144  12.883  23.034  1.00  0.00     0.167 HD
ENDBRANCH  41  43
ENDBRANCH  40  41
ENDBRANCH  39  40
ENDBRANCH  38  39
ENDBRANCH  37  38
ENDBRANCH  35  37
ENDBRANCH  32  33
ENDBRANCH  31  32
ENDBRANCH  29  31
ENDBRANCH  28  29
ENDBRANCH  27  28
ENDBRANCH  25  27
ENDBRANCH   1  25
TORSDOF 15
ENDMDL
