MODEL 1
REMARK minimizedAffinity -7.11211634
REMARK CNNscore 0.403081298
REMARK CNNaffinity 6.15841818
REMARK  6 active torsions:
REMARK  status: ('A' for Active; 'I' for Inactive)
REMARK    1  A    between atoms: C2_2  and  C4_4 
REMARK    2  A    between atoms: C4_4  and  C5_5 
REMARK    3  A    between atoms: C11_13  and  O2_14 
REMARK    4  A    between atoms: C12_16  and  N2_17 
REMARK    5  A    between atoms: C12_16  and  C29_37 
REMARK       I    between atoms: N2_17  and  C13_18 
REMARK    6  A    between atoms: C13_18  and  C14_20 
ROOT
HETATM    1  C5  UNL     1       3.721   7.540   9.412  1.00  0.00     0.185 C 
HETATM    2  C6  UNL     1       3.247   6.076   9.622  1.00  0.00     0.243 C 
HETATM    3  O1  UNL     1       3.629   5.143   8.923  1.00  0.00    -0.271 OA
HETATM    4  N1  UNL     1       2.290   5.911  10.605  1.00  0.00    -0.338 N 
HETATM    5  C7  UNL     1       1.751   4.632  11.015  1.00  0.00     0.127 C 
HETATM    6  C8  UNL     1       0.617   4.999  11.965  1.00  0.00     0.022 C 
HETATM    7  C9  UNL     1       1.082   6.326  12.570  1.00  0.00     0.034 C 
HETATM    8  C10 UNL     1       1.732   7.024  11.374  1.00  0.00     0.173 C 
HETATM    9  C11 UNL     1       2.769   8.137  11.688  1.00  0.00     0.276 C 
HETATM   10  O3  UNL     1       3.361   7.989  12.962  1.00  0.00    -0.295 OA
HETATM   11  C12 UNL     1       4.721   8.445  12.899  1.00  0.00     0.227 C 
HETATM   12  C32 UNL     1       5.047   8.235  11.413  1.00  0.00     0.281 C 
HETATM   13  O5  UNL     1       6.154   8.228  10.896  1.00  0.00    -0.268 OA
HETATM   14  N5  UNL     1       3.844   8.161  10.745  1.00  0.00    -0.277 N 
ENDROOT
BRANCH  11  15
HETATM   15  N2  UNL     1       4.756   9.871  13.177  1.00  0.00    -0.321 N 
HETATM   16  C13 UNL     1       5.848  10.673  12.951  1.00  0.00     0.226 C 
HETATM   17  O4  UNL     1       6.920  10.254  12.530  1.00  0.00    -0.273 OA
HETATM   18  H19 UNL     1       3.893  10.291  13.504  1.00  0.00     0.166 HD
BRANCH  16  19
HETATM   19  C14 UNL     1       5.607  12.137  13.294  1.00  0.00     0.107 C 
HETATM   20  C15 UNL     1       5.369  12.308  14.796  1.00  0.00     0.027 C 
HETATM   21  C16 UNL     1       5.065  13.774  15.134  1.00  0.00     0.054 C 
HETATM   22  C17 UNL     1       4.771  14.000  16.608  1.00  0.00    -0.039 A 
HETATM   23  C26 UNL     1       3.878  14.321  14.221  1.00  0.00     0.235 C 
HETATM   24  C18 UNL     1       5.281  13.277  17.695  1.00  0.00     0.008 A 
HETATM   25  C24 UNL     1       3.961  15.098  16.924  1.00  0.00     0.005 A 
HETATM   26  C19 UNL     1       4.956  13.632  19.016  1.00  0.00     0.003 A 
HETATM   27  C20 UNL     1       4.123  14.723  19.310  1.00  0.00     0.030 A 
HETATM   28  C21 UNL     1       3.640  15.449  18.221  1.00  0.00     0.043 A 
HETATM   29  N3  UNL     1       2.832  16.560  18.124  1.00  0.00    -0.365 N 
HETATM   30  C22 UNL     1       2.644  16.903  16.800  1.00  0.00     0.096 A 
HETATM   31  H27 UNL     1       2.433  17.050  18.913  1.00  0.00     0.165 HD
HETATM   32  C23 UNL     1       3.342  15.998  16.035  1.00  0.00    -0.028 A 
HETATM   33  C25 UNL     1       3.528  15.822  14.564  1.00  0.00     0.077 C 
HETATM   34  N4  UNL     1       4.197  14.118  12.778  1.00  0.00     0.090 N 
HETATM   35  C27 UNL     1       3.135  14.613  11.895  1.00  0.00     0.310 C 
HETATM   36  C28 UNL     1       4.422  12.685  12.497  1.00  0.00     0.286 C 
ENDBRANCH  16  19
ENDBRANCH  11  15
BRANCH  11  37
HETATM   37  C29 UNL     1       5.593   7.607  13.863  1.00  0.00     0.043 C 
HETATM   38  C30 UNL     1       5.841   8.285  15.215  1.00  0.00     0.015 C 
HETATM   39  C31 UNL     1       6.931   7.197  13.231  1.00  0.00     0.015 C 
ENDBRANCH  11  37
BRANCH   9  40
HETATM   40  O2  UNL     1       2.151   9.404  11.637  1.00  0.00    -0.347 OA
HETATM   41  H18 UNL     1       1.723   9.480  12.507  1.00  0.00     0.215 HD
ENDBRANCH   9  40
BRANCH   1  42
HETATM   42  C4  UNL     1       2.764   8.344   8.516  1.00  0.00     0.039 C 
BRANCH  42  43
HETATM   43  C2  UNL     1       1.578   7.527   7.958  1.00  0.00    -0.020 C 
HETATM   44  C1  UNL     1       0.226   8.188   8.214  1.00  0.00     0.009 C 
HETATM   45  C3  UNL     1       1.770   7.304   6.454  1.00  0.00     0.009 C 
ENDBRANCH  42  43
ENDBRANCH   1  42
TORSDOF 6
ENDMDL
