MODEL 1
REMARK minimizedAffinity -7.24717999
REMARK CNNscore 0.503225267
REMARK CNNaffinity 6.46797895
REMARK  5 active torsions:
REMARK  status: ('A' for Active; 'I' for Inactive)
REMARK    1  A    between atoms: C2_2  and  C3_3 
REMARK    2  A    between atoms: C6_6  and  C7_7 
REMARK    3  A    between atoms: C7_7  and  O1_8 
REMARK    4  A    between atoms: C7_7  and  C8_9 
REMARK    5  A    between atoms: C26_32  and  O6_33 
ROOT
HETATM    1  C3  UNL     1       6.761  55.933  -5.548  1.00  0.00     0.008 C 
HETATM    2  C4  UNL     1       6.238  54.542  -5.234  1.00  0.00    -0.023 C 
HETATM    3  C5  UNL     1       5.923  53.585  -6.126  1.00  0.00     0.005 C 
HETATM    4  C6  UNL     1       6.147  53.645  -7.620  1.00  0.00     0.187 C 
HETATM    5  O2  UNL     1       4.879  53.970  -8.221  1.00  0.00    -0.308 OA
HETATM    6  C12 UNL     1       4.990  54.708  -9.369  1.00  0.00     0.276 C 
HETATM    7  O3  UNL     1       6.064  54.963  -9.915  1.00  0.00    -0.264 OA
HETATM    8  C13 UNL     1       3.604  55.065  -9.975  1.00  0.00     0.095 C 
HETATM    9  C14 UNL     1       3.753  56.315 -10.873  1.00  0.00     0.036 C 
HETATM   10  C15 UNL     1       3.371  53.894 -10.910  1.00  0.00     0.003 C 
HETATM   11  C16 UNL     1       2.271  53.222 -11.250  1.00  0.00     0.072 C 
HETATM   12  C17 UNL     1       0.888  53.430 -10.826  1.00  0.00     0.245 C 
HETATM   13  O4  UNL     1      -0.007  52.845 -11.436  1.00  0.00    -0.268 OA
HETATM   14  N1  UNL     1       0.578  54.202  -9.770  1.00  0.00    -0.320 N 
HETATM   15  C18 UNL     1       1.262  54.987  -8.874  1.00  0.00     0.098 A 
HETATM   16  C19 UNL     1       2.549  55.365  -8.902  1.00  0.00     0.045 A 
HETATM   17  C20 UNL     1       3.055  56.273  -7.798  1.00  0.00     0.194 A 
HETATM   18  O5  UNL     1       4.200  56.697  -7.846  1.00  0.00    -0.287 OA
HETATM   19  C21 UNL     1       2.186  56.665  -6.669  1.00  0.00     0.046 A 
HETATM   20  C22 UNL     1       0.850  56.293  -6.705  1.00  0.00     0.032 A 
HETATM   21  C23 UNL     1      -0.043  56.671  -5.683  1.00  0.00     0.026 A 
HETATM   22  C24 UNL     1       0.390  57.424  -4.587  1.00  0.00    -0.027 A 
HETATM   23  C25 UNL     1      -0.593  57.800  -3.516  1.00  0.00     0.051 C 
HETATM   24  C26 UNL     1       1.738  57.791  -4.538  1.00  0.00     0.086 A 
HETATM   25  C27 UNL     1       2.637  57.406  -5.558  1.00  0.00     0.059 A 
HETATM   26  C28 UNL     1       4.052  57.807  -5.374  1.00  0.00     0.163 C 
HETATM   27  O7  UNL     1       4.500  58.753  -6.013  1.00  0.00    -0.292 OA
HETATM   28  C29 UNL     1       4.808  57.082  -4.273  1.00  0.00     0.084 C 
HETATM   29  C30 UNL     1       6.320  56.971  -4.492  1.00  0.00     0.016 C 
HETATM   30  C31 UNL     1       0.334  55.473  -7.801  1.00  0.00     0.210 A 
HETATM   31  O8  UNL     1      -0.857  55.170  -7.840  1.00  0.00    -0.285 OA
HETATM   32  H24 UNL     1      -0.426  54.143  -9.575  1.00  0.00     0.169 HD
ENDROOT
BRANCH   4  33
HETATM   33  C7  UNL     1       6.683  52.296  -8.207  1.00  0.00     0.174 C 
BRANCH  33  34
HETATM   34  O1  UNL     1       7.313  51.499  -7.195  1.00  0.00    -0.389 OA
HETATM   35  H11 UNL     1       6.763  51.568  -6.388  1.00  0.00     0.210 HD
ENDBRANCH  33  34
BRANCH  33  36
HETATM   36  C8  UNL     1       5.609  51.443  -8.837  1.00  0.00     0.009 C 
HETATM   37  C9  UNL     1       5.773  50.539  -9.827  1.00  0.00    -0.089 C 
HETATM   38  C10 UNL     1       4.607  49.740 -10.349  1.00  0.00     0.042 C 
HETATM   39  C11 UNL     1       7.093  50.216 -10.475  1.00  0.00     0.042 C 
ENDBRANCH  33  36
ENDBRANCH   4  33
BRANCH   1  40
HETATM   40  C2  UNL     1       8.297  55.945  -5.722  1.00  0.00     0.004 C 
HETATM   41  C1  UNL     1       9.016  57.164  -5.160  1.00  0.00     0.006 C 
ENDBRANCH   1  40
BRANCH  24  42
HETATM   42  O6  UNL     1       2.214  58.525  -3.486  1.00  0.00    -0.359 OA
HETATM   43  H29 UNL     1       1.490  59.005  -3.050  1.00  0.00     0.217 HD
ENDBRANCH  24  42
TORSDOF 5
ENDMDL
