MODEL 1
REMARK minimizedAffinity -8.6528616
REMARK  10 active torsions:
REMARK  status: ('A' for Active; 'I' for Inactive)
REMARK    1  A    between atoms: C2_2  and  C3_3 
REMARK    2  A    between atoms: C5_5  and  C6_6 
REMARK    3  A    between atoms: C6_6  and  C7_7 
REMARK    4  A    between atoms: C13_13  and  C15_15 
REMARK    5  A    between atoms: C15_15  and  O1_16 
REMARK    6  A    between atoms: O1_16  and  C16_17 
REMARK    7  A    between atoms: C17_19  and  C18_20 
REMARK    8  A    between atoms: C18_20  and  O3_21 
REMARK    9  A    between atoms: C19_22  and  O4_23 
REMARK   10  A    between atoms: C20_24  and  O5_25 
ROOT
HETATM    1  C7  UNL     1      -4.617   6.208  13.049  1.00  0.00     0.025 C 
HETATM    2  C8  UNL     1      -4.776   4.686  12.949  1.00  0.00    -0.084 C 
HETATM    3  C9  UNL     1      -5.937   4.007  12.934  1.00  0.00     0.015 C 
HETATM    4  C10 UNL     1      -3.492   3.907  12.790  1.00  0.00     0.034 C 
HETATM    5  C11 UNL     1      -2.295   4.808  12.500  1.00  0.00     0.010 C 
HETATM    6  C12 UNL     1      -2.088   5.828  13.639  1.00  0.00     0.005 C 
HETATM    7  C13 UNL     1      -0.796   6.705  13.454  1.00  0.00    -0.018 C 
HETATM    8  C14 UNL     1       0.466   5.821  13.650  1.00  0.00     0.018 C 
HETATM    9  C21 UNL     1      -0.768   7.763  14.579  1.00  0.00     0.012 C 
HETATM   10  C22 UNL     1      -1.954   8.716  14.570  1.00  0.00     0.002 C 
HETATM   11  C23 UNL     1      -3.223   8.162  13.931  1.00  0.00     0.010 C 
HETATM   12  C24 UNL     1      -3.421   6.625  14.016  1.00  0.00    -0.032 C 
HETATM   13  C25 UNL     1      -3.749   6.282  15.496  1.00  0.00     0.016 C 
ENDROOT
BRANCH   7  14
HETATM   14  C15 UNL     1      -0.689   7.355  12.048  1.00  0.00     0.180 C 
BRANCH  14  15
HETATM   15  O1  UNL     1       0.623   7.160  11.518  1.00  0.00    -0.358 OA
BRANCH  15  16
HETATM   16  C16 UNL     1       0.612   6.906  10.115  1.00  0.00     0.291 C 
HETATM   17  O2  UNL     1       1.572   5.890   9.758  1.00  0.00    -0.348 OA
HETATM   18  C17 UNL     1       2.511   6.487   8.853  1.00  0.00     0.179 C 
HETATM   19  C19 UNL     1       1.771   7.637   8.189  1.00  0.00     0.182 C 
HETATM   20  C20 UNL     1       0.999   8.190   9.366  1.00  0.00     0.204 C 
BRANCH  18  21
HETATM   21  C18 UNL     1       3.020   5.461   7.845  1.00  0.00     0.198 C 
BRANCH  21  22
HETATM   22  O3  UNL     1       3.336   4.233   8.498  1.00  0.00    -0.398 OA
HETATM   23  H27 UNL     1       3.663   3.628   7.807  1.00  0.00     0.209 HD
ENDBRANCH  21  22
ENDBRANCH  18  21
BRANCH  19  24
HETATM   24  O4  UNL     1       2.628   8.614   7.612  1.00  0.00    -0.390 OA
HETATM   25  H29 UNL     1       3.265   8.116   7.056  1.00  0.00     0.210 HD
ENDBRANCH  19  24
BRANCH  20  26
HETATM   26  O5  UNL     1      -0.123   8.955   8.930  1.00  0.00    -0.388 OA
HETATM   27  H31 UNL     1       0.244   9.672   8.376  1.00  0.00     0.210 HD
ENDBRANCH  20  26
ENDBRANCH  15  16
ENDBRANCH  14  15
ENDBRANCH   7  14
BRANCH   1  28
HETATM   28  C6  UNL     1      -5.946   7.025  13.188  1.00  0.00     0.037 C 
BRANCH  28  29
HETATM   29  C5  UNL     1      -6.715   6.896  14.479  1.00  0.00    -0.019 C 
HETATM   30  C3  UNL     1      -8.006   6.533  14.641  1.00  0.00    -0.067 C 
HETATM   31  C4  UNL     1      -8.916   6.130  13.509  1.00  0.00     0.048 C 
BRANCH  30  32
HETATM   32  C2  UNL     1      -8.556   6.514  15.995  1.00  0.00    -0.004 C 
HETATM   33  C1  UNL     1      -8.936   7.575  16.720  1.00  0.00     0.012 C 
ENDBRANCH  30  32
ENDBRANCH  28  29
ENDBRANCH   1  28
TORSDOF 10
ENDMDL
