MODEL 1
REMARK minimizedAffinity -7.88980579
REMARK  3 active torsions:
REMARK  status: ('A' for Active; 'I' for Inactive)
REMARK    1  A    between atoms: C2_2  and  C3_3 
REMARK    2  A    between atoms: C3_3  and  N1_4 
REMARK    3  A    between atoms: C10_13  and  N3_14 
ROOT
HETATM    1  N1  UNL     1      -6.056   5.406  13.311  1.00  0.00     0.093 N 
HETATM    2  C4  UNL     1      -7.428   5.179  12.838  1.00  0.00     0.273 C 
HETATM    3  C5  UNL     1      -7.915   3.753  13.065  1.00  0.00     0.031 C 
HETATM    4  C6  UNL     1      -7.046   2.736  12.335  1.00  0.00     0.009 C 
HETATM    5  C7  UNL     1      -5.649   3.278  11.994  1.00  0.00     0.025 C 
HETATM    6  C8  UNL     1      -4.663   2.112  11.818  1.00  0.00     0.064 C 
HETATM    7  C9  UNL     1      -3.229   2.547  11.693  1.00  0.00     0.019 A 
HETATM    8  N2  UNL     1      -2.368   1.633  11.194  1.00  0.00    -0.336 N 
ATOM      9  H2  UNL     1      -2.688   0.715  10.883  1.00  0.00     0.168 HD
HETATM   10  C10 UNL     1      -1.080   1.981  11.124  1.00  0.00     0.154 A 
HETATM   11  N4  UNL     1      -0.590   3.169  11.480  1.00  0.00    -0.342 N 
ATOM     12  H4  UNL     1       0.400   3.396  11.381  1.00  0.00     0.167 HD
HETATM   13  C11 UNL     1      -1.474   4.052  11.978  1.00  0.00     0.099 A 
HETATM   14  C12 UNL     1      -2.821   3.793  12.126  1.00  0.00    -0.018 A 
HETATM   15  C13 UNL     1      -3.767   4.827  12.650  1.00  0.00     0.078 C 
HETATM   16  C14 UNL     1      -5.144   4.261  13.073  1.00  0.00     0.231 C 
ENDROOT
BRANCH   1  17
HETATM   17  C3  UNL     1      -5.999   5.857  14.713  1.00  0.00     0.272 C 
BRANCH  17  18
HETATM   18  C2  UNL     1      -7.346   5.692  15.428  1.00  0.00     0.026 C 
HETATM   19  C1  UNL     1      -7.525   6.742  16.516  1.00  0.00     0.007 C 
ENDBRANCH  17  18
ENDBRANCH   1  17
BRANCH  10  20
HETATM   20  N3  UNL     1      -0.200   1.060  10.595  1.00  0.00    -0.274 NA
HETATM   21  H17 UNL     1      -0.704   0.427   9.991  1.00  0.00     0.127 HD
HETATM   22  H18 UNL     1       0.594   1.546  10.203  1.00  0.00     0.127 HD
ENDBRANCH  10  20
TORSDOF 3
ENDMDL
