MODEL 1
REMARK minimizedAffinity -6.21409321
REMARK  12 active torsions:
REMARK  status: ('A' for Active; 'I' for Inactive)
REMARK    1  A    between atoms: C2_2  and  C3_3 
REMARK    2  A    between atoms: C3_3  and  C4_4 
REMARK    3  A    between atoms: C3_3  and  C13_17 
REMARK    4  A    between atoms: C4_4  and  O2_6 
REMARK    5  A    between atoms: O2_6  and  C5_7 
REMARK    6  A    between atoms: C5_7  and  C6_8 
REMARK    7  A    between atoms: C6_8  and  O3_9 
REMARK    8  A    between atoms: O3_9  and  C7_10 
REMARK    9  A    between atoms: C7_10  and  C8_11 
REMARK   10  A    between atoms: C8_11  and  N1_12 
REMARK   11  A    between atoms: N1_12  and  C9_13 
REMARK   12  A    between atoms: N1_12  and  C11_15 
ROOT
HETATM    1  C4  UNL     1      -2.978  51.755 -26.075  1.00  0.00     0.267 C 
HETATM    2  O1  UNL     1      -3.051  52.951 -26.330  1.00  0.00    -0.265 OA
ENDROOT
BRANCH   1   3
HETATM    3  C3  UNL     1      -2.110  50.747 -26.824  1.00  0.00     0.118 C 
BRANCH   3   4
HETATM    4  C2  UNL     1      -2.342  49.298 -26.347  1.00  0.00     0.015 C 
HETATM    5  C1  UNL     1      -3.320  48.472 -27.174  1.00  0.00     0.006 C 
ENDBRANCH   3   4
BRANCH   3   6
HETATM    6  C13 UNL     1      -0.638  51.129 -26.887  1.00  0.00    -0.044 A 
HETATM    7  C14 UNL     1      -0.074  51.509 -28.114  1.00  0.00     0.008 A 
HETATM    8  C15 UNL     1       1.278  51.849 -28.203  1.00  0.00     0.001 A 
HETATM    9  C16 UNL     1       2.083  51.808 -27.067  1.00  0.00     0.000 A 
HETATM   10  C17 UNL     1       1.539  51.424 -25.843  1.00  0.00     0.001 A 
HETATM   11  C18 UNL     1       0.188  51.084 -25.753  1.00  0.00     0.008 A 
ENDBRANCH   3   6
ENDBRANCH   1   3
BRANCH   1  12
HETATM   12  O2  UNL     1      -3.663  51.122 -25.077  1.00  0.00    -0.319 OA
BRANCH  12  13
HETATM   13  C5  UNL     1      -4.467  51.952 -24.220  1.00  0.00     0.205 C 
BRANCH  13  14
HETATM   14  C6  UNL     1      -3.655  52.322 -22.981  1.00  0.00     0.194 C 
BRANCH  14  15
HETATM   15  O3  UNL     1      -2.805  51.229 -22.624  1.00  0.00    -0.387 OA
BRANCH  15  16
HETATM   16  C7  UNL     1      -2.560  51.184 -21.216  1.00  0.00     0.198 C 
BRANCH  16  17
HETATM   17  C8  UNL     1      -1.042  51.096 -20.984  1.00  0.00     0.298 C 
BRANCH  17  18
HETATM   18  N1  UNL     1      -0.415  52.389 -20.640  1.00  0.00     0.089 N 
BRANCH  18  19
HETATM   19  C9  UNL     1       0.847  52.587 -21.371  1.00  0.00     0.268 C 
HETATM   20  C10 UNL     1       1.371  54.020 -21.316  1.00  0.00     0.037 C 
ENDBRANCH  18  19
BRANCH  18  21
HETATM   21  C11 UNL     1      -0.291  52.543 -19.180  1.00  0.00     0.268 C 
HETATM   22  C12 UNL     1      -0.101  51.261 -18.374  1.00  0.00     0.037 C 
ENDBRANCH  18  21
ENDBRANCH  17  18
ENDBRANCH  16  17
ENDBRANCH  15  16
ENDBRANCH  14  15
ENDBRANCH  13  14
ENDBRANCH  12  13
ENDBRANCH   1  12
TORSDOF 12
ENDMDL
