MODEL 1
REMARK minimizedAffinity -9.85337639
REMARK CNNscore 0.587412
REMARK CNNaffinity 6.86714315
REMARK  14 active torsions:
REMARK  status: ('A' for Active; 'I' for Inactive)
REMARK    1  A    between atoms: O1_2  and  C2_3 
REMARK    2  A    between atoms: C6_8  and  C7_9 
REMARK    3  A    between atoms: C7_9  and  O3_11 
REMARK    4  A    between atoms: C8_12  and  C9_13 
REMARK    5  A    between atoms: C9_13  and  C10_14 
REMARK    6  A    between atoms: C10_14  and  N2_15 
REMARK       I    between atoms: N2_15  and  C11_16 
REMARK    7  A    between atoms: C11_16  and  C12_18 
REMARK    8  A    between atoms: C12_18  and  C13_19 
REMARK    9  A    between atoms: C13_19  and  C14_20 
REMARK   10  A    between atoms: C14_20  and  O6_22 
REMARK   11  A    between atoms: O6_22  and  C15_23 
REMARK   12  A    between atoms: C15_23  and  C16_24 
REMARK   13  A    between atoms: C16_24  and  C17_26 
REMARK   14  A    between atoms: C17_26  and  O8_27 
ROOT
HETATM    1  C14 UNL     1       4.699   7.266  10.770  1.00  0.00     0.259 C 
HETATM    2  O5  UNL     1       5.386   6.272  10.576  1.00  0.00    -0.265 OA
ENDROOT
BRANCH   1   3
HETATM    3  C13 UNL     1       3.256   7.397  10.346  1.00  0.00     0.120 C 
BRANCH   3   4
HETATM    4  C12 UNL     1       2.535   6.064  10.515  1.00  0.00     0.112 C 
BRANCH   4   5
HETATM    5  C11 UNL     1       1.030   6.239  10.461  1.00  0.00     0.218 C 
HETATM    6  N2  UNL     1       0.349   5.361  11.274  1.00  0.00    -0.361 N 
HETATM    7  H12 UNL     1       0.870   4.747  11.888  1.00  0.00     0.162 HD
HETATM    8  O4  UNL     1       0.484   7.081   9.757  1.00  0.00    -0.274 OA
BRANCH   6   9
HETATM    9  C10 UNL     1      -1.091   5.446  11.446  1.00  0.00     0.127 C 
BRANCH   9  10
HETATM   10  C9  UNL     1      -1.612   4.572  12.589  1.00  0.00     0.061 C 
BRANCH  10  11
HETATM   11  C8  UNL     1      -2.575   3.523  12.108  1.00  0.00    -0.011 A 
HETATM   12  C6  UNL     1      -2.281   2.341  11.428  1.00  0.00     0.114 A 
HETATM   13  N1  UNL     1      -3.480   1.703  11.200  1.00  0.00    -0.350 N 
HETATM   14  C5  UNL     1      -4.535   2.433  11.683  1.00  0.00     0.043 A 
HETATM   15  H6  UNL     1      -3.561   0.815  10.722  1.00  0.00     0.166 HD
HETATM   16  C4  UNL     1      -5.905   2.164  11.647  1.00  0.00     0.033 A 
HETATM   17  C36 UNL     1      -4.004   3.580  12.262  1.00  0.00     0.002 A 
HETATM   18  C3  UNL     1      -6.761   3.107  12.222  1.00  0.00     0.039 A 
HETATM   19  C2  UNL     1      -6.271   4.271  12.817  1.00  0.00     0.069 A 
HETATM   20  C37 UNL     1      -4.893   4.517  12.842  1.00  0.00     0.051 A 
BRANCH  12  21
HETATM   21  C7  UNL     1      -1.052   1.752  10.968  1.00  0.00     0.194 C 
HETATM   22  O2  UNL     1       0.073   2.194  11.146  1.00  0.00    -0.645 OA
BRANCH  21  23
HETATM   23  O3  UNL     1      -1.251   0.603  10.306  1.00  0.00    -0.772 OA
HETATM   24  H7  UNL     1      -0.360   0.287  10.056  1.00  0.00     0.167 HD
ENDBRANCH  21  23
ENDBRANCH  12  21
BRANCH  19  25
HETATM   25  O1  UNL     1      -7.238   5.092  13.335  1.00  0.00    -0.356 OA
HETATM   26  C1  UNL     1      -8.246   5.545  12.442  1.00  0.00     0.210 C 
ENDBRANCH  19  25
ENDBRANCH  10  11
ENDBRANCH   9  10
ENDBRANCH   6   9
ENDBRANCH   4   5
ENDBRANCH   3   4
ENDBRANCH   1   3
BRANCH   1  27
HETATM   27  O6  UNL     1       5.128   8.402  11.393  1.00  0.00    -0.314 OA
BRANCH  27  28
HETATM   28  C15 UNL     1       5.627   8.164  12.706  1.00  0.00     0.260 C 
BRANCH  28  29
HETATM   29  C16 UNL     1       7.104   8.519  12.814  1.00  0.00     0.185 C 
HETATM   30  O7  UNL     1       7.700   8.958  11.825  1.00  0.00    -0.292 OA
BRANCH  29  31
HETATM   31  C17 UNL     1       7.782   8.408  14.209  1.00  0.00     0.128 C 
HETATM   32  C18 UNL     1       9.326   8.239  14.071  1.00  0.00     0.047 C 
HETATM   33  C19 UNL     1       9.969   8.997  15.246  1.00  0.00     0.009 C 
HETATM   34  C20 UNL     1       8.795   9.424  16.118  1.00  0.00     0.002 C 
HETATM   35  C21 UNL     1       9.011  10.582  17.101  1.00  0.00    -0.004 C 
HETATM   36  C34 UNL     1       7.656   9.687  15.099  1.00  0.00    -0.002 C 
HETATM   37  C22 UNL     1      10.162  10.288  18.073  1.00  0.00     0.010 C 
HETATM   38  C31 UNL     1       7.696  10.834  17.899  1.00  0.00     0.002 C 
HETATM   39  C23 UNL     1      10.362  11.435  19.055  1.00  0.00     0.035 C 
HETATM   40  C24 UNL     1       9.091  11.787  19.795  1.00  0.00    -0.068 C 
HETATM   41  C25 UNL     1       9.117  11.912  21.134  1.00  0.00     0.053 C 
HETATM   42  C29 UNL     1       7.833  12.009  18.943  1.00  0.00    -0.016 C 
HETATM   43  C26 UNL     1       7.938  12.380  21.896  1.00  0.00     0.149 C 
HETATM   44  O9  UNL     1       8.005  12.467  23.121  1.00  0.00    -0.293 OA
HETATM   45  C27 UNL     1       6.725  12.829  21.124  1.00  0.00     0.084 C 
HETATM   46  C28 UNL     1       6.567  12.012  19.850  1.00  0.00     0.022 C 
HETATM   47  C30 UNL     1       7.959  13.389  18.255  1.00  0.00     0.020 C 
HETATM   48  C32 UNL     1       6.465  10.963  16.965  1.00  0.00     0.007 C 
HETATM   49  C33 UNL     1       6.362   9.835  15.920  1.00  0.00     0.013 C 
HETATM   50  C35 UNL     1       7.886  10.963  14.245  1.00  0.00     0.019 C 
BRANCH  31  51
HETATM   51  O8  UNL     1       7.337   7.251  14.925  1.00  0.00    -0.381 OA
HETATM   52  H19 UNL     1       6.374   7.163  14.810  1.00  0.00     0.211 HD
ENDBRANCH  31  51
ENDBRANCH  29  31
ENDBRANCH  28  29
ENDBRANCH  27  28
ENDBRANCH   1  27
TORSDOF 14
ENDMDL
