MODEL 1
REMARK minimizedAffinity -7.80082655
REMARK  11 active torsions:
REMARK  status: ('A' for Active; 'I' for Inactive)
REMARK    1  A    between atoms: C7_8  and  C8_9 
REMARK    2  A    between atoms: C8_9  and  C10_11 
REMARK    3  A    between atoms: C10_11  and  O2_12 
REMARK    4  A    between atoms: C16_18  and  O3_20 
REMARK    5  A    between atoms: O3_20  and  C18_21 
REMARK    6  A    between atoms: C18_21  and  C19_23 
REMARK    7  A    between atoms: C19_23  and  C20_24 
REMARK    8  A    between atoms: C19_23  and  O5_26 
REMARK    9  A    between atoms: O5_26  and  C22_27 
REMARK   10  A    between atoms: C22_27  and  C23_29 
REMARK   11  A    between atoms: C23_29  and  C24_30 
ROOT
HETATM    1  C1  UNL     1      -1.194  10.343  18.384  1.00  0.00     0.022 C 
HETATM    2  C2  UNL     1      -1.222   9.810  17.150  1.00  0.00    -0.019 C 
HETATM    3  C3  UNL     1      -2.482   9.302  16.486  1.00  0.00     0.074 C 
HETATM    4  C4  UNL     1      -2.459   7.798  16.174  1.00  0.00     0.135 C 
HETATM    5  O1  UNL     1      -1.139   7.466  15.711  1.00  0.00    -0.376 OA
HETATM    6  C5  UNL     1      -1.168   6.944  14.383  1.00  0.00     0.162 C 
HETATM    7  C6  UNL     1      -2.547   6.280  14.306  1.00  0.00     0.033 C 
HETATM    8  C7  UNL     1      -3.052   5.787  12.933  1.00  0.00    -0.001 C 
HETATM    9  C11 UNL     1      -4.584   5.800  12.948  1.00  0.00     0.010 C 
HETATM   10  C12 UNL     1      -5.103   7.223  13.162  1.00  0.00     0.034 C 
HETATM   11  C13 UNL     1      -4.538   7.921  14.387  1.00  0.00    -0.082 C 
HETATM   12  C14 UNL     1      -5.115   9.090  14.727  1.00  0.00     0.015 C 
HETATM   13  C15 UNL     1      -3.475   7.168  15.172  1.00  0.00     0.050 C 
HETATM   14  C16 UNL     1      -0.663   8.039  13.378  1.00  0.00     0.094 C 
HETATM   15  C17 UNL     1      -1.745   8.983  12.824  1.00  0.00     0.049 C 
HETATM   16  C26 UNL     1       0.496   8.916  13.983  1.00  0.00     0.048 C 
HETATM   17  C27 UNL     1       0.120  10.076  14.923  1.00  0.00     0.086 C 
HETATM   18  C28 UNL     1       0.093   9.729  16.409  1.00  0.00     0.155 C 
HETATM   19  O7  UNL     1       1.130   9.458  17.014  1.00  0.00    -0.293 OA
ENDROOT
BRANCH  14  20
HETATM   20  O3  UNL     1      -0.174   7.403  12.139  1.00  0.00    -0.306 OA
BRANCH  20  21
HETATM   21  C18 UNL     1       0.913   6.580  12.131  1.00  0.00     0.289 C 
HETATM   22  O4  UNL     1       1.147   5.702  12.949  1.00  0.00    -0.262 OA
BRANCH  21  23
HETATM   23  C19 UNL     1       1.827   6.936  10.954  1.00  0.00     0.231 C 
BRANCH  23  24
HETATM   24  C20 UNL     1       3.277   7.037  11.442  1.00  0.00     0.038 C 
HETATM   25  C21 UNL     1       3.649   8.460  11.837  1.00  0.00     0.008 C 
ENDBRANCH  23  24
BRANCH  23  26
HETATM   26  O5  UNL     1       1.777   5.906   9.952  1.00  0.00    -0.306 OA
BRANCH  26  27
HETATM   27  C22 UNL     1       2.845   5.887   9.106  1.00  0.00     0.259 C 
HETATM   28  O6  UNL     1       3.969   5.524   9.417  1.00  0.00    -0.265 OA
BRANCH  27  29
HETATM   29  C23 UNL     1       2.411   6.353   7.738  1.00  0.00     0.111 C 
BRANCH  29  30
HETATM   30  C24 UNL     1       2.070   7.842   7.687  1.00  0.00     0.005 C 
HETATM   31  C25 UNL     1       3.250   8.726   8.068  1.00  0.00     0.005 C 
ENDBRANCH  29  30
ENDBRANCH  27  29
ENDBRANCH  26  27
ENDBRANCH  23  26
ENDBRANCH  21  23
ENDBRANCH  20  21
ENDBRANCH  14  20
BRANCH   8  32
HETATM   32  C8  UNL     1      -2.414   4.415  12.543  1.00  0.00     0.010 C 
HETATM   33  C9  UNL     1      -3.390   3.233  12.622  1.00  0.00     0.012 C 
BRANCH  32  34
HETATM   34  C10 UNL     1      -1.743   4.449  11.157  1.00  0.00     0.168 C 
BRANCH  34  35
HETATM   35  O2  UNL     1      -0.468   3.823  11.168  1.00  0.00    -0.400 OA
HETATM   36  H15 UNL     1      -0.097   3.915  10.272  1.00  0.00     0.209 HD
ENDBRANCH  34  35
ENDBRANCH  32  34
ENDBRANCH   8  32
TORSDOF 11
ENDMDL
