MODEL 1
REMARK minimizedAffinity -6.76626205
REMARK CNNscore 0.546633542
REMARK CNNaffinity 6.44572306
REMARK  9 active torsions:
REMARK  status: ('A' for Active; 'I' for Inactive)
REMARK    1  A    between atoms: C2_2  and  C3_3 
REMARK    2  A    between atoms: C2_2  and  C9_12 
REMARK    3  A    between atoms: C3_3  and  C4_4 
REMARK    4  A    between atoms: C4_4  and  C5_5 
REMARK    5  A    between atoms: C5_5  and  O1_6 
REMARK    6  A    between atoms: C5_5  and  C6_7 
REMARK    7  A    between atoms: C6_7  and  O2_9 
REMARK    8  A    between atoms: C6_7  and  C8_10 
REMARK    9  A    between atoms: C8_10  and  O3_11 
ROOT
HETATM    1  C9  UNL     1     -14.984  -4.159  13.054  1.00  0.00    -0.002 C 
HETATM    2  C10 UNL     1     -13.787  -4.005  14.032  1.00  0.00     0.007 C 
HETATM    3  C11 UNL     1     -13.949  -2.645  14.735  1.00  0.00     0.015 C 
HETATM    4  C12 UNL     1     -15.416  -2.240  14.491  1.00  0.00    -0.005 C 
HETATM    5  C13 UNL     1     -16.282  -3.007  15.541  1.00  0.00     0.021 C 
HETATM    6  C14 UNL     1     -15.858  -0.787  14.626  1.00  0.00    -0.000 C 
HETATM    7  C15 UNL     1     -16.889  -0.292  13.890  1.00  0.00    -0.060 C 
HETATM    8  C16 UNL     1     -17.609  -1.184  12.862  1.00  0.00     0.036 C 
HETATM    9  C17 UNL     1     -17.080  -2.621  12.659  1.00  0.00     0.015 C 
HETATM   10  C18 UNL     1     -15.587  -2.722  12.995  1.00  0.00    -0.028 C 
HETATM   11  C19 UNL     1     -14.793  -1.848  11.981  1.00  0.00     0.016 C 
HETATM   12  C20 UNL     1     -17.411   1.165  14.020  1.00  0.00    -0.014 C 
HETATM   13  C21 UNL     1     -18.732   1.099  14.821  1.00  0.00     0.020 C 
HETATM   14  C22 UNL     1     -17.687   1.773  12.613  1.00  0.00     0.021 C 
HETATM   15  C23 UNL     1     -17.693   3.296  12.518  1.00  0.00     0.080 C 
HETATM   16  C24 UNL     1     -17.789   3.974  13.859  1.00  0.00     0.135 C 
HETATM   17  O4  UNL     1     -18.612   4.871  14.044  1.00  0.00    -0.297 OA
HETATM   18  C25 UNL     1     -16.764   3.564  14.924  1.00  0.00     0.018 C 
HETATM   19  C26 UNL     1     -17.351   3.849  16.323  1.00  0.00     0.023 C 
HETATM   20  C27 UNL     1     -15.542   4.486  14.738  1.00  0.00     0.023 C 
HETATM   21  C28 UNL     1     -16.334   2.070  14.706  1.00  0.00     0.020 C 
HETATM   22  C29 UNL     1     -15.791   1.415  15.976  1.00  0.00     0.090 C 
HETATM   23  C30 UNL     1     -15.215   0.053  15.686  1.00  0.00     0.157 C 
HETATM   24  O5  UNL     1     -14.280  -0.371  16.362  1.00  0.00    -0.293 OA
ENDROOT
BRANCH   1  25
HETATM   25  C2  UNL     1     -14.645  -5.002  11.787  1.00  0.00    -0.014 C 
HETATM   26  C1  UNL     1     -13.591  -6.106  11.954  1.00  0.00     0.010 C 
BRANCH  25  27
HETATM   27  C3  UNL     1     -14.306  -4.096  10.581  1.00  0.00     0.007 C 
BRANCH  27  28
HETATM   28  C4  UNL     1     -14.934  -4.481   9.232  1.00  0.00     0.035 C 
BRANCH  28  29
HETATM   29  C5  UNL     1     -14.170  -4.143   7.936  1.00  0.00     0.154 C 
BRANCH  29  30
HETATM   30  O1  UNL     1     -12.843  -3.704   8.254  1.00  0.00    -0.392 OA
HETATM   31  H10 UNL     1     -12.346  -4.520   8.462  1.00  0.00     0.210 HD
ENDBRANCH  29  30
BRANCH  29  32
HETATM   32  C6  UNL     1     -14.085  -5.240   6.835  1.00  0.00     0.101 C 
HETATM   33  C7  UNL     1     -13.233  -4.812   5.641  1.00  0.00     0.051 C 
BRANCH  32  34
HETATM   34  O2  UNL     1     -15.421  -5.519   6.369  1.00  0.00    -0.385 OA
HETATM   35  H14 UNL     1     -15.664  -6.396   6.733  1.00  0.00     0.210 HD
ENDBRANCH  32  34
BRANCH  32  36
HETATM   36  C8  UNL     1     -13.515  -6.553   7.429  1.00  0.00     0.204 C 
BRANCH  36  37
HETATM   37  O3  UNL     1     -12.087  -6.503   7.467  1.00  0.00    -0.398 OA
HETATM   38  H17 UNL     1     -11.785  -6.320   6.552  1.00  0.00     0.209 HD
ENDBRANCH  36  37
ENDBRANCH  32  36
ENDBRANCH  29  32
ENDBRANCH  28  29
ENDBRANCH  27  28
ENDBRANCH  25  27
ENDBRANCH   1  25
TORSDOF 9
ENDMDL
