MODEL 1
REMARK minimizedAffinity -8.46111774
REMARK CNNscore 0.270458043
REMARK CNNaffinity 6.72952271
REMARK  12 active torsions:
REMARK  status: ('A' for Active; 'I' for Inactive)
REMARK    1  A    between atoms: C2_2  and  C3_3 
REMARK    2  A    between atoms: C6_6  and  C7_7 
REMARK    3  A    between atoms: C7_7  and  C8_8 
REMARK    4  A    between atoms: C15_19  and  C16_20 
REMARK    5  A    between atoms: C16_20  and  C17_21 
REMARK    6  A    between atoms: C18_22  and  C19_23 
REMARK    7  A    between atoms: C21_25  and  C22_26 
REMARK    8  A    between atoms: C23_28  and  C24_29 
REMARK    9  A    between atoms: C27_34  and  C28_35 
REMARK   10  A    between atoms: C28_35  and  C29_36 
REMARK   11  A    between atoms: C29_36  and  C30_37 
REMARK   12  A    between atoms: C30_37  and  O5_39 
ROOT
HETATM    1  C8  UNL     1      -0.682   7.087  13.856  1.00  0.00     0.016 C 
HETATM    2  N1  UNL     1      -0.420   7.738  14.951  1.00  0.00    -0.362 N 
ATOM      3  H1  UNL     1       0.503   7.901  15.353  1.00  0.00     0.165 HD
HETATM    4  C9  UNL     1      -1.623   8.165  15.465  1.00  0.00     0.023 C 
HETATM    5  C10 UNL     1      -1.739   9.124  16.396  1.00  0.00    -0.000 A 
HETATM    6  C11 UNL     1      -3.054   9.738  16.929  1.00  0.00     0.127 A 
HETATM    7  C12 UNL     1      -2.498  10.873  17.850  1.00  0.00     0.166 A 
HETATM    8  O1  UNL     1      -3.180  11.661  18.492  1.00  0.00    -0.292 OA
HETATM    9  C13 UNL     1      -1.049  10.814  17.832  1.00  0.00     0.045 A 
HETATM   10  C14 UNL     1      -0.665   9.802  17.008  1.00  0.00     0.055 A 
HETATM   11  N2  UNL     1       0.675   9.667  17.022  1.00  0.00    -0.357 N 
HETATM   12  C15 UNL     1       1.190  10.667  17.843  1.00  0.00     0.022 A 
HETATM   13  C25 UNL     1       0.112  11.407  18.358  1.00  0.00    -0.023 A 
HETATM   14  C26 UNL     1       0.160  12.564  19.288  1.00  0.00     0.051 C 
HETATM   15  C27 UNL     1      -2.795   7.483  14.783  1.00  0.00     0.046 C 
HETATM   16  C31 UNL     1      -2.143   7.004  13.477  1.00  0.00     0.041 C 
HETATM   17  C32 UNL     1      -2.438   7.933  12.303  1.00  0.00     0.017 C 
HETATM   18  H10 UNL     1       1.202   8.936  16.570  1.00  0.00     0.166 HD
ENDROOT
BRANCH  15  19
HETATM   19  C28 UNL     1      -3.324   6.323  15.649  1.00  0.00     0.022 C 
BRANCH  19  20
HETATM   20  C29 UNL     1      -4.847   6.190  15.636  1.00  0.00     0.110 C 
BRANCH  20  21
HETATM   21  C30 UNL     1      -5.455   6.125  14.261  1.00  0.00     0.139 C 
HETATM   22  O4  UNL     1      -6.068   7.030  13.717  1.00  0.00    -0.650 OA
BRANCH  21  23
HETATM   23  O5  UNL     1      -5.210   4.975  13.609  1.00  0.00    -0.776 OA
HETATM   24  H29 UNL     1      -5.592   5.116  12.714  1.00  0.00     0.167 HD
ENDBRANCH  21  23
ENDBRANCH  20  21
ENDBRANCH  19  20
ENDBRANCH  15  19
BRANCH   1  25
HETATM   25  C7  UNL     1       0.346   6.468  12.976  1.00  0.00     0.055 C 
BRANCH  25  26
HETATM   26  C6  UNL     1       0.524   6.906  11.726  1.00  0.00     0.043 A 
HETATM   27  C4  UNL     1       1.351   6.387  10.656  1.00  0.00    -0.019 A 
HETATM   28  C3  UNL     1       1.255   7.173   9.555  1.00  0.00     0.039 A 
HETATM   29  C5  UNL     1       2.178   5.156  10.845  1.00  0.00     0.052 C 
HETATM   30  C33 UNL     1       0.283   8.260   9.923  1.00  0.00     0.256 A 
HETATM   31  N4  UNL     1      -0.092   8.000  11.212  1.00  0.00    -0.322 N 
HETATM   32  O6  UNL     1      -0.116   9.193   9.244  1.00  0.00    -0.267 OA
HETATM   33  H34 UNL     1      -0.727   8.571  11.758  1.00  0.00     0.169 HD
BRANCH  28  34
HETATM   34  C2  UNL     1       1.885   6.996   8.270  1.00  0.00     0.007 C 
HETATM   35  C1  UNL     1       2.418   7.967   7.517  1.00  0.00     0.012 C 
ENDBRANCH  28  34
ENDBRANCH  25  26
ENDBRANCH   1  25
BRANCH  12  36
HETATM   36  C16 UNL     1       2.669  10.777  18.093  1.00  0.00     0.115 C 
BRANCH  36  37
HETATM   37  C17 UNL     1       3.039  10.550  19.527  1.00  0.00     0.022 A 
HETATM   38  C18 UNL     1       3.980  11.169  20.341  1.00  0.00    -0.020 A 
HETATM   39  C21 UNL     1       3.910  10.535  21.633  1.00  0.00     0.040 A 
HETATM   40  C23 UNL     1       2.897   9.588  21.569  1.00  0.00     0.084 A 
HETATM   41  N3  UNL     1       2.370   9.634  20.298  1.00  0.00    -0.356 N 
HETATM   42  H20 UNL     1       1.566   9.091  19.995  1.00  0.00     0.166 HD
BRANCH  38  43
HETATM   43  C19 UNL     1       4.900  12.293  19.956  1.00  0.00     0.037 C 
HETATM   44  C20 UNL     1       6.176  11.790  19.295  1.00  0.00     0.010 C 
ENDBRANCH  38  43
BRANCH  39  45
HETATM   45  C22 UNL     1       4.713  10.826  22.821  1.00  0.00     0.273 C 
HETATM   46  O2  UNL     1       4.787  11.936  23.343  1.00  0.00    -0.301 OA
ENDBRANCH  39  45
BRANCH  40  47
HETATM   47  C24 UNL     1       2.385   8.696  22.585  1.00  0.00     0.288 C 
HETATM   48  O3  UNL     1       1.670   7.721  22.380  1.00  0.00    -0.300 OA
ENDBRANCH  40  47
ENDBRANCH  36  37
ENDBRANCH  12  36
TORSDOF 12
ENDMDL
