MODEL 1
REMARK minimizedAffinity -9.63037205
REMARK  6 active torsions:
REMARK  status: ('A' for Active; 'I' for Inactive)
REMARK    1  A    between atoms: C2_2  and  C30_31 
REMARK    2  A    between atoms: C3_3  and  C4_4 
REMARK    3  A    between atoms: C4_4  and  C5_5 
REMARK    4  A    between atoms: C5_5  and  C6_6 
REMARK    5  A    between atoms: C6_6  and  C8_8 
REMARK    6  A    between atoms: C30_31  and  O3_33 
ROOT
HETATM    1  C8  UNL     1      -1.875  51.136 -23.778  1.00  0.00    -0.002 C 
HETATM    2  C9  UNL     1      -2.777  52.306 -24.254  1.00  0.00     0.007 C 
HETATM    3  C10 UNL     1      -4.244  51.818 -24.148  1.00  0.00     0.015 C 
HETATM    4  C11 UNL     1      -4.139  50.294 -23.916  1.00  0.00    -0.013 C 
HETATM    5  C12 UNL     1      -3.970  49.664 -25.334  1.00  0.00     0.021 C 
HETATM    6  C13 UNL     1      -5.251  49.529 -23.205  1.00  0.00    -0.070 C 
HETATM    7  C14 UNL     1      -6.386  50.103 -22.763  1.00  0.00    -0.022 C 
HETATM    8  C15 UNL     1      -7.392  49.415 -21.887  1.00  0.00     0.034 C 
HETATM    9  C16 UNL     1      -6.835  48.129 -21.237  1.00  0.00     0.013 C 
HETATM   10  C17 UNL     1      -7.829  47.368 -20.275  1.00  0.00     0.018 C 
HETATM   11  C18 UNL     1      -7.245  47.352 -18.843  1.00  0.00     0.023 C 
HETATM   12  C19 UNL     1      -9.222  48.030 -20.187  1.00  0.00     0.023 C 
HETATM   13  C20 UNL     1      -8.026  45.892 -20.663  1.00  0.00     0.135 C 
HETATM   14  O1  UNL     1      -9.115  45.324 -20.533  1.00  0.00    -0.297 OA
HETATM   15  C21 UNL     1      -6.833  45.086 -21.127  1.00  0.00     0.080 C 
HETATM   16  C22 UNL     1      -5.685  45.935 -21.647  1.00  0.00     0.017 C 
HETATM   17  C23 UNL     1      -6.142  47.245 -22.321  1.00  0.00    -0.031 C 
HETATM   18  C24 UNL     1      -7.113  46.902 -23.490  1.00  0.00     0.016 C 
HETATM   19  C25 UNL     1      -4.926  48.044 -22.945  1.00  0.00     0.024 C 
HETATM   20  C26 UNL     1      -3.577  47.914 -22.186  1.00  0.00     0.010 C 
HETATM   21  C27 UNL     1      -2.436  48.775 -22.776  1.00  0.00     0.011 C 
HETATM   22  C28 UNL     1      -2.871  50.240 -22.982  1.00  0.00    -0.029 C 
HETATM   23  C29 UNL     1      -3.129  50.854 -21.568  1.00  0.00     0.016 C 
ENDROOT
BRANCH   1  24
HETATM   24  C6  UNL     1      -0.531  51.497 -23.079  1.00  0.00    -0.014 C 
HETATM   25  C7  UNL     1      -0.480  51.286 -21.563  1.00  0.00     0.010 C 
BRANCH  24  26
HETATM   26  C5  UNL     1      -0.063  52.933 -23.435  1.00  0.00     0.008 C 
BRANCH  26  27
HETATM   27  C4  UNL     1       1.037  53.026 -24.503  1.00  0.00     0.028 C 
BRANCH  27  28
HETATM   28  C3  UNL     1       0.495  52.705 -25.872  1.00  0.00    -0.013 C 
HETATM   29  C2  UNL     1       1.138  52.081 -26.881  1.00  0.00     0.008 C 
HETATM   30  C1  UNL     1       0.473  51.851 -28.209  1.00  0.00     0.055 C 
BRANCH  29  31
HETATM   31  C30 UNL     1       2.503  51.527 -26.714  1.00  0.00     0.171 C 
HETATM   32  O2  UNL     1       2.843  50.604 -25.997  1.00  0.00    -0.646 OA
BRANCH  31  33
HETATM   33  O3  UNL     1       3.399  52.162 -27.490  1.00  0.00    -0.773 OA
HETATM   34  H46 UNL     1       4.237  51.695 -27.300  1.00  0.00     0.167 HD
ENDBRANCH  31  33
ENDBRANCH  29  31
ENDBRANCH  27  28
ENDBRANCH  26  27
ENDBRANCH  24  26
ENDBRANCH   1  24
TORSDOF 6
ENDMDL
