MODEL 1
REMARK minimizedAffinity -9.73694992
REMARK  8 active torsions:
REMARK  status: ('A' for Active; 'I' for Inactive)
REMARK    1  A    between atoms: C5_5  and  O1_6 
REMARK    2  A    between atoms: C9_10  and  C10_11 
REMARK    3  A    between atoms: C10_11  and  C11_12 
REMARK    4  A    between atoms: C11_12  and  C12_13 
REMARK    5  A    between atoms: C14_15  and  C15_16 
REMARK    6  A    between atoms: C15_16  and  C16_17 
REMARK    7  A    between atoms: C16_17  and  C17_18 
REMARK    8  A    between atoms: C23_24  and  O2_25 
ROOT
HETATM    1  C12 UNL     1      -0.821   8.026  11.937  1.00  0.00    -0.087 C 
HETATM    2  C13 UNL     1      -0.871   6.525  12.048  1.00  0.00     0.043 C 
HETATM    3  C14 UNL     1      -1.855   8.859  12.169  1.00  0.00    -0.024 C 
ENDROOT
BRANCH   3   4
HETATM    4  C15 UNL     1      -3.254   8.513  12.591  1.00  0.00     0.030 C 
BRANCH   4   5
HETATM    5  C16 UNL     1      -3.408   8.177  14.085  1.00  0.00     0.042 C 
BRANCH   5   6
HETATM    6  C17 UNL     1      -4.249   6.925  14.467  1.00  0.00     0.065 C 
HETATM    7  C18 UNL     1      -3.664   6.237  15.711  1.00  0.00     0.046 C 
HETATM    8  C19 UNL     1      -5.695   7.409  14.701  1.00  0.00     0.043 C 
HETATM    9  C20 UNL     1      -6.645   6.249  14.941  1.00  0.00     0.044 C 
HETATM   10  C21 UNL     1      -6.394   5.148  13.956  1.00  0.00    -0.021 A 
HETATM   11  C22 UNL     1      -7.361   4.148  13.779  1.00  0.00     0.046 A 
HETATM   12  C27 UNL     1      -5.196   5.087  13.230  1.00  0.00     0.082 A 
HETATM   13  C23 UNL     1      -7.135   3.117  12.873  1.00  0.00     0.066 A 
HETATM   14  C24 UNL     1      -5.958   3.064  12.138  1.00  0.00     0.046 A 
HETATM   15  C25 UNL     1      -4.980   4.054  12.302  1.00  0.00    -0.025 A 
HETATM   16  C26 UNL     1      -3.701   3.973  11.518  1.00  0.00     0.051 C 
HETATM   17  O3  UNL     1      -4.195   6.015  13.355  1.00  0.00    -0.340 OA
BRANCH  13  18
HETATM   18  O2  UNL     1      -8.054   2.131  12.675  1.00  0.00    -0.361 OA
HETATM   19  H36 UNL     1      -8.820   2.302  13.247  1.00  0.00     0.217 HD
ENDBRANCH  13  18
ENDBRANCH   5   6
ENDBRANCH   4   5
ENDBRANCH   3   4
BRANCH   1  20
HETATM   20  C11 UNL     1       0.522   8.590  11.498  1.00  0.00     0.034 C 
BRANCH  20  21
HETATM   21  C10 UNL     1       0.839   8.292  10.022  1.00  0.00     0.014 C 
BRANCH  21  22
HETATM   22  C9  UNL     1       1.782   7.077   9.780  1.00  0.00     0.024 C 
HETATM   23  C2  UNL     1       2.044   6.788   8.286  1.00  0.00    -0.084 C 
HETATM   24  C1  UNL     1       1.551   7.480   7.242  1.00  0.00     0.015 C 
HETATM   25  C3  UNL     1       3.004   5.653   7.988  1.00  0.00     0.036 C 
HETATM   26  C4  UNL     1       3.326   4.815   9.215  1.00  0.00     0.037 C 
HETATM   27  C5  UNL     1       3.813   5.657  10.402  1.00  0.00     0.127 C 
HETATM   28  C6  UNL     1       3.177   7.091  10.516  1.00  0.00    -0.014 C 
HETATM   29  C7  UNL     1       4.113   8.182   9.929  1.00  0.00     0.018 C 
HETATM   30  C8  UNL     1       3.072   7.399  12.025  1.00  0.00     0.018 C 
BRANCH  27  31
HETATM   31  O1  UNL     1       5.239   5.737  10.381  1.00  0.00    -0.395 OA
HETATM   32  H8  UNL     1       5.587   4.830  10.414  1.00  0.00     0.210 HD
ENDBRANCH  27  31
ENDBRANCH  21  22
ENDBRANCH  20  21
ENDBRANCH   1  20
TORSDOF 8
ENDMDL
