MODEL 1
REMARK minimizedAffinity -9.67429447
REMARK  7 active torsions:
REMARK  status: ('A' for Active; 'I' for Inactive)
REMARK    1  A    between atoms: C2_2  and  C3_3 
REMARK    2  A    between atoms: C4_5  and  C5_6 
REMARK    3  A    between atoms: C5_6  and  C6_7 
REMARK    4  A    between atoms: C6_7  and  C7_8 
REMARK    5  A    between atoms: C7_8  and  C9_10 
REMARK    6  A    between atoms: C11_12  and  O2_13 
REMARK    7  A    between atoms: C30_33  and  O4_34 
ROOT
HETATM    1  C9  UNL     1       0.782   6.703  12.919  1.00  0.00     0.001 C 
HETATM    2  C10 UNL     1       1.140   7.519  14.198  1.00  0.00     0.038 C 
HETATM    3  C11 UNL     1      -0.179   7.810  14.937  1.00  0.00     0.132 C 
HETATM    4  C12 UNL     1      -1.177   6.782  14.359  1.00  0.00     0.016 C 
HETATM    5  C13 UNL     1      -0.928   5.393  15.041  1.00  0.00     0.023 C 
HETATM    6  C14 UNL     1      -2.676   7.048  14.507  1.00  0.00    -0.037 C 
HETATM    7  C15 UNL     1      -3.539   6.488  13.618  1.00  0.00    -0.065 C 
HETATM    8  C16 UNL     1      -3.030   5.718  12.389  1.00  0.00     0.036 C 
HETATM    9  C17 UNL     1      -1.507   5.691  12.126  1.00  0.00     0.015 C 
HETATM   10  C18 UNL     1      -0.774   6.836  12.837  1.00  0.00    -0.026 C 
HETATM   11  C19 UNL     1      -1.156   8.181  12.145  1.00  0.00     0.016 C 
HETATM   12  C20 UNL     1      -5.080   6.605  13.779  1.00  0.00    -0.015 C 
HETATM   13  C21 UNL     1      -5.574   7.588  12.690  1.00  0.00     0.020 C 
HETATM   14  C22 UNL     1      -5.752   5.217  13.553  1.00  0.00     0.021 C 
HETATM   15  C23 UNL     1      -7.077   4.996  14.277  1.00  0.00     0.080 C 
HETATM   16  C24 UNL     1      -7.771   6.292  14.612  1.00  0.00     0.135 C 
HETATM   17  O3  UNL     1      -8.926   6.498  14.240  1.00  0.00    -0.297 OA
HETATM   18  C25 UNL     1      -6.990   7.281  15.484  1.00  0.00     0.018 C 
HETATM   19  C26 UNL     1      -7.328   6.941  16.950  1.00  0.00     0.023 C 
HETATM   20  C27 UNL     1      -7.489   8.715  15.224  1.00  0.00     0.023 C 
HETATM   21  C28 UNL     1      -5.455   7.078  15.232  1.00  0.00     0.016 C 
HETATM   22  C29 UNL     1      -4.599   8.279  15.655  1.00  0.00     0.043 C 
HETATM   23  C30 UNL     1      -3.115   7.920  15.661  1.00  0.00     0.148 C 
ENDROOT
BRANCH   1  24
HETATM   24  C7  UNL     1       1.656   7.107  11.699  1.00  0.00    -0.013 C 
HETATM   25  C8  UNL     1       1.078   8.288  10.912  1.00  0.00     0.010 C 
BRANCH  24  26
HETATM   26  C6  UNL     1       1.925   5.920  10.733  1.00  0.00     0.008 C 
BRANCH  26  27
HETATM   27  C5  UNL     1       3.067   6.142   9.737  1.00  0.00     0.028 C 
BRANCH  27  28
HETATM   28  C4  UNL     1       2.565   6.137   8.317  1.00  0.00    -0.017 C 
HETATM   29  C2  UNL     1       2.287   7.197   7.535  1.00  0.00    -0.028 C 
HETATM   30  C1  UNL     1       1.746   7.053   6.143  1.00  0.00     0.051 C 
BRANCH  29  31
HETATM   31  C3  UNL     1       2.522   8.609   7.963  1.00  0.00     0.265 C 
HETATM   32  O1  UNL     1       3.456   9.300   7.579  1.00  0.00    -0.302 OA
ENDBRANCH  29  31
ENDBRANCH  27  28
ENDBRANCH  26  27
ENDBRANCH  24  26
ENDBRANCH   1  24
BRANCH   3  33
HETATM   33  O2  UNL     1      -0.032   7.711  16.349  1.00  0.00    -0.394 OA
HETATM   34  H18 UNL     1       0.736   8.255  16.598  1.00  0.00     0.210 HD
ENDBRANCH   3  33
BRANCH  23  35
HETATM   35  O4  UNL     1      -2.821   7.252  16.882  1.00  0.00    -0.391 OA
HETATM   36  H46 UNL     1      -1.850   7.324  16.998  1.00  0.00     0.210 HD
ENDBRANCH  23  35
TORSDOF 7
ENDMDL
