MODEL 1
REMARK minimizedAffinity -6.19438028
REMARK CNNscore 0.649847746
REMARK CNNaffinity 6.66036415
REMARK  5 active torsions:
REMARK  status: ('A' for Active; 'I' for Inactive)
REMARK    1  A    between atoms: C4_4  and  C5_5 
REMARK    2  A    between atoms: C5_5  and  C6_6 
REMARK    3  A    between atoms: C6_6  and  C7_7 
REMARK    4  A    between atoms: C7_7  and  C9_9 
REMARK    5  A    between atoms: C30_31  and  O2_32 
ROOT
HETATM    1  C9  UNL     1     -15.232   5.725  24.222  1.00  0.00    -0.002 C 
HETATM    2  C10 UNL     1     -14.645   5.747  25.655  1.00  0.00     0.007 C 
HETATM    3  C11 UNL     1     -13.813   7.045  25.775  1.00  0.00     0.015 C 
HETATM    4  C12 UNL     1     -14.203   7.897  24.550  1.00  0.00    -0.010 C 
HETATM    5  C13 UNL     1     -15.521   8.653  24.920  1.00  0.00     0.021 C 
HETATM    6  C14 UNL     1     -13.244   8.969  24.030  1.00  0.00    -0.039 C 
HETATM    7  C15 UNL     1     -13.309   9.339  22.720  1.00  0.00    -0.066 C 
HETATM    8  C16 UNL     1     -14.260   8.640  21.735  1.00  0.00     0.036 C 
HETATM    9  C17 UNL     1     -15.032   7.397  22.231  1.00  0.00     0.015 C 
HETATM   10  C18 UNL     1     -14.366   6.772  23.462  1.00  0.00    -0.029 C 
HETATM   11  C19 UNL     1     -13.013   6.143  23.014  1.00  0.00     0.016 C 
HETATM   12  C20 UNL     1     -12.388  10.446  22.138  1.00  0.00    -0.015 C 
HETATM   13  C21 UNL     1     -11.230   9.698  21.436  1.00  0.00     0.020 C 
HETATM   14  C22 UNL     1     -13.138  11.325  21.106  1.00  0.00     0.021 C 
HETATM   15  C23 UNL     1     -12.305  12.485  20.585  1.00  0.00     0.080 C 
HETATM   16  C24 UNL     1     -11.814  13.367  21.706  1.00  0.00     0.135 C 
HETATM   17  O1  UNL     1     -11.860  14.593  21.580  1.00  0.00    -0.297 OA
HETATM   18  C25 UNL     1     -11.143  12.694  22.914  1.00  0.00     0.018 C 
HETATM   19  C26 UNL     1      -9.658  12.486  22.580  1.00  0.00     0.023 C 
HETATM   20  C27 UNL     1     -11.207  13.696  24.098  1.00  0.00     0.023 C 
HETATM   21  C28 UNL     1     -11.934  11.398  23.306  1.00  0.00     0.016 C 
HETATM   22  C29 UNL     1     -11.272  10.566  24.420  1.00  0.00     0.043 C 
HETATM   23  C30 UNL     1     -12.275   9.577  25.022  1.00  0.00     0.148 C 
ENDROOT
BRANCH   1  24
HETATM   24  C7  UNL     1     -15.456   4.326  23.570  1.00  0.00    -0.014 C 
HETATM   25  C8  UNL     1     -16.716   3.686  24.179  1.00  0.00     0.010 C 
BRANCH  24  26
HETATM   26  C6  UNL     1     -14.267   3.341  23.678  1.00  0.00     0.008 C 
BRANCH  26  27
HETATM   27  C5  UNL     1     -14.555   2.092  24.527  1.00  0.00     0.028 C 
BRANCH  27  28
HETATM   28  C4  UNL     1     -13.812   2.075  25.837  1.00  0.00    -0.025 C 
HETATM   29  C2  UNL     1     -12.527   1.726  26.036  1.00  0.00    -0.091 C 
HETATM   30  C1  UNL     1     -11.937   1.713  27.422  1.00  0.00     0.042 C 
HETATM   31  C3  UNL     1     -11.565   1.336  24.949  1.00  0.00     0.042 C 
ENDBRANCH  27  28
ENDBRANCH  26  27
ENDBRANCH  24  26
ENDBRANCH   1  24
BRANCH  23  32
HETATM   32  O2  UNL     1     -13.038  10.261  26.013  1.00  0.00    -0.391 OA
HETATM   33  H48 UNL     1     -12.425  10.531  26.715  1.00  0.00     0.210 HD
ENDBRANCH  23  32
TORSDOF 5
ENDMDL
