MODEL 1
REMARK minimizedAffinity -8.20847702
REMARK CNNscore 0.72401756
REMARK CNNaffinity 6.78895235
REMARK  9 active torsions:
REMARK  status: ('A' for Active; 'I' for Inactive)
REMARK    1  A    between atoms: C11_11  and  C13_13 
REMARK    2  A    between atoms: C13_13  and  O2_15 
REMARK    3  A    between atoms: C15_17  and  C16_18 
REMARK    4  A    between atoms: C16_18  and  C17_19 
REMARK    5  A    between atoms: C17_19  and  C18_20 
REMARK    6  A    between atoms: C19_21  and  C20_22 
REMARK    7  A    between atoms: C20_22  and  O3_23 
REMARK    8  A    between atoms: O3_23  and  C21_24 
REMARK    9  A    between atoms: C21_24  and  C22_26 
ROOT
HETATM    1  C16 UNL     1     -11.219   7.647  15.220  1.00  0.00     0.014 C 
ENDROOT
BRANCH   1   2
HETATM    2  C15 UNL     1     -12.358   8.587  14.738  1.00  0.00     0.022 C 
HETATM    3  C2  UNL     1     -12.079  10.081  14.893  1.00  0.00    -0.084 C 
HETATM    4  C1  UNL     1     -10.896  10.655  15.170  1.00  0.00     0.014 C 
HETATM    5  C3  UNL     1     -13.296  10.931  14.639  1.00  0.00     0.034 C 
HETATM    6  C4  UNL     1     -13.762  10.727  13.205  1.00  0.00     0.011 C 
HETATM    7  C5  UNL     1     -14.048   9.249  12.836  1.00  0.00     0.012 C 
HETATM    8  C6  UNL     1     -12.852   8.294  13.261  1.00  0.00    -0.032 C 
HETATM    9  C11 UNL     1     -15.502   8.706  13.191  1.00  0.00     0.049 C 
HETATM   10  C7  UNL     1     -11.675   8.499  12.266  1.00  0.00     0.016 C 
HETATM   11  C8  UNL     1     -13.334   6.836  13.078  1.00  0.00     0.010 C 
HETATM   12  C9  UNL     1     -14.472   6.457  14.013  1.00  0.00     0.002 C 
HETATM   13  C10 UNL     1     -15.482   7.579  14.251  1.00  0.00     0.020 C 
HETATM   14  C12 UNL     1     -16.485   9.779  13.720  1.00  0.00     0.026 C 
BRANCH   9  15
HETATM   15  C13 UNL     1     -16.155   8.250  11.862  1.00  0.00     0.267 C 
HETATM   16  O1  UNL     1     -15.896   8.757  10.773  1.00  0.00    -0.264 OA
BRANCH  15  17
HETATM   17  O2  UNL     1     -17.025   7.218  12.028  1.00  0.00    -0.326 OA
HETATM   18  C14 UNL     1     -18.403   7.582  11.950  1.00  0.00     0.213 C 
ENDBRANCH  15  17
ENDBRANCH   9  15
ENDBRANCH   1   2
BRANCH   1  19
HETATM   19  C17 UNL     1      -9.823   8.192  14.875  1.00  0.00     0.042 C 
BRANCH  19  20
HETATM   20  C18 UNL     1      -8.733   7.248  15.271  1.00  0.00    -0.024 A 
HETATM   21  C19 UNL     1      -8.224   6.180  14.546  1.00  0.00     0.083 A 
HETATM   22  O5  UNL     1      -7.231   5.565  15.254  1.00  0.00    -0.324 OA
HETATM   23  C28 UNL     1      -7.095   6.236  16.423  1.00  0.00     0.143 A 
HETATM   24  C29 UNL     1      -7.991   7.275  16.487  1.00  0.00     0.034 A 
BRANCH  21  25
HETATM   25  C20 UNL     1      -8.541   5.582  13.221  1.00  0.00     0.244 C 
BRANCH  25  26
HETATM   26  O3  UNL     1      -7.334   4.982  12.729  1.00  0.00    -0.311 OA
BRANCH  26  27
HETATM   27  C21 UNL     1      -7.334   3.634  12.614  1.00  0.00     0.293 C 
HETATM   28  O4  UNL     1      -8.297   2.893  12.737  1.00  0.00    -0.259 OA
BRANCH  27  29
HETATM   29  C22 UNL     1      -5.965   3.149  12.281  1.00  0.00     0.039 A 
HETATM   30  C23 UNL     1      -5.828   1.856  11.753  1.00  0.00     0.019 A 
HETATM   31  C24 UNL     1      -4.565   1.362  11.412  1.00  0.00     0.025 A 
HETATM   32  C25 UNL     1      -3.434   2.157  11.600  1.00  0.00     0.034 A 
HETATM   33 CL1  UNL     1      -1.880   1.548  11.187  1.00  0.00    -0.084 Cl
HETATM   34  C26 UNL     1      -3.555   3.442  12.128  1.00  0.00     0.025 A 
HETATM   35  C27 UNL     1      -4.818   3.938  12.467  1.00  0.00     0.019 A 
ENDBRANCH  27  29
ENDBRANCH  26  27
ENDBRANCH  25  26
ENDBRANCH  21  25
ENDBRANCH  19  20
ENDBRANCH   1  19
TORSDOF 9
ENDMDL
