MODEL 1
REMARK minimizedAffinity -7.35981131
REMARK CNNscore 0.561304867
REMARK CNNaffinity 6.17289925
REMARK  8 active torsions:
REMARK  status: ('A' for Active; 'I' for Inactive)
REMARK    1  A    between atoms: C3_3  and  O1_4 
REMARK    2  A    between atoms: N1_14  and  O2_16 
REMARK    3  A    between atoms: O2_16  and  C13_17 
REMARK    4  A    between atoms: C13_17  and  C14_18 
REMARK       I    between atoms: C14_18  and  N2_20 
REMARK    5  A    between atoms: N2_20  and  C15_21 
REMARK    6  A    between atoms: C15_21  and  C16_22 
REMARK    7  A    between atoms: C16_22  and  O4_23 
REMARK    8  A    between atoms: C16_22  and  C17_24 
ROOT
HETATM    1  C1  UNL     1     -16.246  -2.712  14.149  1.00  0.00     0.015 C 
HETATM    2  C2  UNL     1     -16.209  -3.642  14.908  1.00  0.00    -0.078 C 
HETATM    3  C3  UNL     1     -16.174  -4.769  15.851  1.00  0.00     0.128 C 
HETATM    4  C4  UNL     1     -17.557  -5.437  16.015  1.00  0.00     0.052 C 
HETATM    5  C5  UNL     1     -17.280  -6.923  16.315  1.00  0.00     0.010 C 
HETATM    6  C6  UNL     1     -15.753  -7.036  16.403  1.00  0.00     0.002 C 
HETATM    7  C7  UNL     1     -15.141  -8.431  16.173  1.00  0.00    -0.004 C 
HETATM    8  C8  UNL     1     -15.504  -9.356  17.355  1.00  0.00     0.010 C 
HETATM    9  C9  UNL     1     -14.445  -9.372  18.447  1.00  0.00     0.035 C 
HETATM   10  C10 UNL     1     -13.062  -9.711  17.948  1.00  0.00    -0.069 C 
HETATM   11  C11 UNL     1     -12.120 -10.038  18.853  1.00  0.00     0.030 C 
HETATM   12  C12 UNL     1     -10.708 -10.322  18.455  1.00  0.00     0.032 C 
HETATM   13  N1  UNL     1      -9.699 -10.442  19.266  1.00  0.00    -0.271 N 
ATOM     14  H1  UNL     1      -8.752 -10.683  18.975  1.00  0.00     0.194 HD
HETATM   15  C23 UNL     1     -10.437 -10.467  16.971  1.00  0.00     0.060 C 
HETATM   16  C24 UNL     1     -11.252  -9.414  16.220  1.00  0.00     0.020 C 
HETATM   17  C25 UNL     1     -12.787  -9.569  16.451  1.00  0.00    -0.016 C 
HETATM   18  C26 UNL     1     -13.214 -10.863  15.699  1.00  0.00     0.020 C 
HETATM   19  C27 UNL     1     -13.595  -8.341  15.877  1.00  0.00     0.002 C 
HETATM   20  C28 UNL     1     -13.030  -6.954  16.292  1.00  0.00     0.007 C 
HETATM   21  C29 UNL     1     -13.743  -5.745  15.656  1.00  0.00     0.014 C 
HETATM   22  C30 UNL     1     -15.249  -5.953  15.426  1.00  0.00     0.003 C 
HETATM   23  C31 UNL     1     -15.484  -6.336  13.939  1.00  0.00     0.020 C 
ENDROOT
BRANCH   3  24
HETATM   24  O1  UNL     1     -15.805  -4.272  17.141  1.00  0.00    -0.377 OA
HETATM   25  H2  UNL     1     -15.127  -3.589  17.007  1.00  0.00     0.211 HD
ENDBRANCH   3  24
BRANCH  13  26
HETATM   26  O2  UNL     1     -10.081 -10.197  20.593  1.00  0.00    -0.271 OA
BRANCH  26  27
HETATM   27  C13 UNL     1      -8.998  -9.629  21.319  1.00  0.00     0.303 C 
BRANCH  27  28
HETATM   28  C14 UNL     1      -8.315 -10.602  22.274  1.00  0.00     0.243 C 
HETATM   29  O3  UNL     1      -7.187 -11.047  22.067  1.00  0.00    -0.271 OA
HETATM   30  N2  UNL     1      -9.082 -10.993  23.348  1.00  0.00    -0.356 N 
HETATM   31  H16 UNL     1      -9.926 -10.434  23.493  1.00  0.00     0.162 HD
BRANCH  30  32
HETATM   32  C15 UNL     1      -8.557 -11.785  24.454  1.00  0.00     0.159 C 
BRANCH  32  33
HETATM   33  C16 UNL     1      -8.540 -13.309  24.189  1.00  0.00     0.170 C 
BRANCH  33  34
HETATM   34  O4  UNL     1      -7.318 -13.725  23.574  1.00  0.00    -0.389 OA
HETATM   35  H20 UNL     1      -7.104 -13.060  22.882  1.00  0.00     0.210 HD
ENDBRANCH  33  34
BRANCH  33  36
HETATM   36  C17 UNL     1      -8.692 -14.089  25.471  1.00  0.00    -0.013 A 
HETATM   37  C18 UNL     1      -7.796 -15.092  25.847  1.00  0.00     0.013 A 
HETATM   38  C19 UNL     1      -7.982 -15.782  27.040  1.00  0.00     0.025 A 
HETATM   39  C20 UNL     1      -9.066 -15.452  27.845  1.00  0.00     0.005 A 
HETATM   40  C21 UNL     1      -9.303 -16.189  29.131  1.00  0.00     0.068 C 
HETATM   41  N3  UNL     1      -9.934 -14.467  27.522  1.00  0.00    -0.369 N 
HETATM   42  C22 UNL     1      -9.734 -13.818  26.350  1.00  0.00     0.097 A 
ATOM     43  H3  UNL     1     -10.710 -14.222  28.138  1.00  0.00     0.165 HD
ENDBRANCH  33  36
ENDBRANCH  32  33
ENDBRANCH  30  32
ENDBRANCH  27  28
ENDBRANCH  26  27
ENDBRANCH  13  26
TORSDOF 8
ENDMDL
