MODEL 1
REMARK minimizedAffinity -7.6682601
REMARK CNNscore 0.327851295
REMARK CNNaffinity 6.15191078
REMARK  12 active torsions:
REMARK  status: ('A' for Active; 'I' for Inactive)
REMARK    1  A    between atoms: C3_3  and  O1_4 
REMARK    2  A    between atoms: N1_14  and  O2_16 
REMARK    3  A    between atoms: O2_16  and  C13_17 
REMARK    4  A    between atoms: C13_17  and  C14_18 
REMARK       I    between atoms: C14_18  and  N2_20 
REMARK    5  A    between atoms: N2_20  and  C15_21 
REMARK    6  A    between atoms: C15_21  and  C16_22 
REMARK    7  A    between atoms: C15_21  and  C23_33 
REMARK       I    between atoms: C16_22  and  N3_24 
REMARK    8  A    between atoms: N3_24  and  C17_25 
REMARK    9  A    between atoms: C17_25  and  C18_26 
REMARK   10  A    between atoms: C17_25  and  C19_29 
REMARK   11  A    between atoms: C18_26  and  O6_28 
REMARK   12  A    between atoms: C19_29  and  C21_31 
ROOT
HETATM    1  C1  UNL     1      -0.500   6.040  11.436  1.00  0.00     0.015 C 
HETATM    2  C2  UNL     1      -0.959   6.829  12.213  1.00  0.00    -0.078 C 
HETATM    3  C3  UNL     1      -1.569   7.801  13.146  1.00  0.00     0.128 C 
HETATM    4  C4  UNL     1      -2.941   8.275  12.617  1.00  0.00     0.052 C 
HETATM    5  C5  UNL     1      -3.965   8.015  13.726  1.00  0.00     0.010 C 
HETATM    6  C6  UNL     1      -3.158   7.944  15.027  1.00  0.00     0.002 C 
HETATM    7  C7  UNL     1      -3.053   9.286  15.814  1.00  0.00    -0.004 C 
HETATM    8  C8  UNL     1      -2.922  10.564  14.962  1.00  0.00     0.010 C 
HETATM    9  C9  UNL     1      -2.942  11.828  15.815  1.00  0.00     0.035 C 
HETATM   10  C10 UNL     1      -1.894  11.786  16.896  1.00  0.00    -0.069 C 
HETATM   11  C11 UNL     1      -1.031  12.810  17.032  1.00  0.00     0.030 C 
HETATM   12  C12 UNL     1      -0.079  12.870  18.172  1.00  0.00     0.032 C 
HETATM   13  N1  UNL     1       0.900  13.723  18.095  1.00  0.00    -0.271 N 
ATOM     14  H1  UNL     1       1.072  14.314  17.283  1.00  0.00     0.194 HD
HETATM   15  C26 UNL     1      -0.346  11.938  19.334  1.00  0.00     0.060 C 
HETATM   16  C27 UNL     1      -0.659  10.559  18.752  1.00  0.00     0.020 C 
HETATM   17  C28 UNL     1      -1.901  10.551  17.801  1.00  0.00    -0.016 C 
HETATM   18  C29 UNL     1      -3.162  10.609  18.709  1.00  0.00     0.020 C 
HETATM   19  C30 UNL     1      -1.961   9.224  16.924  1.00  0.00     0.002 C 
HETATM   20  C31 UNL     1      -0.622   8.820  16.267  1.00  0.00     0.007 C 
HETATM   21  C32 UNL     1      -0.696   7.448  15.594  1.00  0.00     0.014 C 
HETATM   22  C33 UNL     1      -1.841   7.237  14.587  1.00  0.00     0.003 C 
HETATM   23  C34 UNL     1      -2.118   5.700  14.541  1.00  0.00     0.020 C 
ENDROOT
BRANCH   3  24
HETATM   24  O1  UNL     1      -0.702   8.929  13.205  1.00  0.00    -0.377 OA
HETATM   25  H2  UNL     1      -0.366   9.087  12.307  1.00  0.00     0.211 HD
ENDBRANCH   3  24
BRANCH  13  26
HETATM   26  O2  UNL     1       1.693  13.740  19.250  1.00  0.00    -0.271 OA
BRANCH  26  27
HETATM   27  C13 UNL     1       3.053  13.575  18.867  1.00  0.00     0.303 C 
BRANCH  27  28
HETATM   28  C14 UNL     1       3.631  12.275  19.424  1.00  0.00     0.244 C 
HETATM   29  O3  UNL     1       3.748  11.247  18.760  1.00  0.00    -0.271 OA
HETATM   30  N2  UNL     1       3.972  12.325  20.766  1.00  0.00    -0.346 N 
HETATM   31  H16 UNL     1       4.303  13.223  21.101  1.00  0.00     0.163 HD
BRANCH  30  32
HETATM   32  C15 UNL     1       4.573  11.154  21.411  1.00  0.00     0.180 C 
BRANCH  32  33
HETATM   33  C16 UNL     1       5.882  11.613  22.102  1.00  0.00     0.241 C 
HETATM   34  O4  UNL     1       6.178  11.249  23.241  1.00  0.00    -0.271 OA
HETATM   35  N3  UNL     1       6.692  12.419  21.336  1.00  0.00    -0.344 N 
HETATM   36  H18 UNL     1       6.283  12.864  20.516  1.00  0.00     0.163 HD
BRANCH  35  37
HETATM   37  C17 UNL     1       7.847  13.116  21.921  1.00  0.00     0.186 C 
BRANCH  37  38
HETATM   38  C18 UNL     1       8.946  12.070  22.137  1.00  0.00     0.163 C 
HETATM   39  O5  UNL     1       9.804  11.758  21.320  1.00  0.00    -0.648 OA
BRANCH  38  40
HETATM   40  O6  UNL     1       8.922  11.490  23.350  1.00  0.00    -0.775 OA
HETATM   41  H20 UNL     1       9.688  10.877  23.336  1.00  0.00     0.167 HD
ENDBRANCH  38  40
ENDBRANCH  37  38
BRANCH  37  42
HETATM   42  C19 UNL     1       7.464  13.909  23.194  1.00  0.00     0.014 C 
HETATM   43  C20 UNL     1       6.205  14.757  22.937  1.00  0.00     0.012 C 
BRANCH  42  44
HETATM   44  C21 UNL     1       8.572  14.819  23.771  1.00  0.00     0.002 C 
HETATM   45  C22 UNL     1       8.128  16.235  24.093  1.00  0.00     0.005 C 
ENDBRANCH  42  44
ENDBRANCH  37  42
ENDBRANCH  35  37
ENDBRANCH  32  33
BRANCH  32  46
HETATM   46  C23 UNL     1       3.559  10.486  22.373  1.00  0.00     0.009 C 
HETATM   47  C24 UNL     1       2.821  11.519  23.227  1.00  0.00     0.012 C 
HETATM   48  C25 UNL     1       2.554   9.566  21.676  1.00  0.00     0.012 C 
ENDBRANCH  32  46
ENDBRANCH  30  32
ENDBRANCH  27  28
ENDBRANCH  26  27
ENDBRANCH  13  26
TORSDOF 12
ENDMDL
