MODEL 1
REMARK minimizedAffinity -9.88759422
REMARK  1 active torsions:
REMARK  status: ('A' for Active; 'I' for Inactive)
REMARK    1  A    between atoms: C22_26  and  O5_27 
ROOT
HETATM    1  C1  UNL     1       0.985  12.876  15.254  1.00  0.00     0.014 C 
HETATM    2  C2  UNL     1       0.703  11.658  14.760  1.00  0.00    -0.085 C 
HETATM    3  C3  UNL     1       1.828  10.696  14.433  1.00  0.00     0.035 C 
HETATM    4  C4  UNL     1       1.668   9.391  15.212  1.00  0.00     0.025 C 
HETATM    5  C5  UNL     1       0.277   8.782  15.016  1.00  0.00     0.055 C 
HETATM    6  C6  UNL     1       0.106   8.118  13.630  1.00  0.00     0.021 C 
HETATM    7  C7  UNL     1      -1.221   7.346  13.479  1.00  0.00     0.014 C 
HETATM    8  C8  UNL     1      -2.457   8.113  14.055  1.00  0.00    -0.001 C 
HETATM    9  C9  UNL     1      -2.837   9.145  12.947  1.00  0.00     0.019 C 
HETATM   10  C10 UNL     1      -2.033   8.845  15.404  1.00  0.00     0.112 C 
HETATM   11  O1  UNL     1      -1.422   7.818  16.269  1.00  0.00    -0.305 OA
HETATM   12  C11 UNL     1      -0.069   7.751  16.056  1.00  0.00     0.269 C 
HETATM   13  O2  UNL     1       0.681   6.957  16.592  1.00  0.00    -0.264 OA
HETATM   14  C12 UNL     1      -0.830   9.804  15.342  1.00  0.00     0.050 C 
HETATM   15  C13 UNL     1      -0.707  11.096  14.507  1.00  0.00     0.018 C 
HETATM   16  C14 UNL     1      -1.828  12.099  14.787  1.00  0.00     0.015 C 
HETATM   17  C15 UNL     1      -3.192   9.361  16.214  1.00  0.00     0.187 A 
HETATM   18  O3  UNL     1      -4.186  10.163  15.585  1.00  0.00    -0.372 OA
HETATM   19  C16 UNL     1      -4.599   8.841  15.969  1.00  0.00     0.160 A 
HETATM   20  C17 UNL     1      -4.948   7.974  14.772  1.00  0.00     0.035 C 
HETATM   21  C18 UNL     1      -6.343   7.252  14.874  1.00  0.00    -0.023 C 
HETATM   22  C19 UNL     1      -6.449   6.287  16.086  1.00  0.00     0.016 C 
HETATM   23  C20 UNL     1      -7.456   8.329  15.029  1.00  0.00     0.096 C 
HETATM   24  C21 UNL     1      -8.849   7.766  14.857  1.00  0.00     0.183 C 
HETATM   25  O4  UNL     1      -9.848   8.311  15.331  1.00  0.00    -0.290 OA
HETATM   26  C22 UNL     1      -9.043   6.522  14.053  1.00  0.00     0.114 C 
HETATM   27  C23 UNL     1      -8.009   5.929  13.428  1.00  0.00    -0.042 C 
HETATM   28  C24 UNL     1      -8.219   4.712  12.565  1.00  0.00     0.047 C 
HETATM   29  C25 UNL     1      -6.603   6.520  13.511  1.00  0.00     0.026 C 
HETATM   30  C26 UNL     1      -5.454   5.550  13.163  1.00  0.00     0.011 C 
HETATM   31  C27 UNL     1      -4.096   6.266  13.084  1.00  0.00     0.011 C 
HETATM   32  C28 UNL     1      -3.716   7.094  14.347  1.00  0.00    -0.027 C 
HETATM   33  C29 UNL     1      -3.369   6.057  15.458  1.00  0.00     0.016 C 
ENDROOT
BRANCH  26  34
HETATM   34  O5  UNL     1     -10.335   6.040  13.967  1.00  0.00    -0.357 OA
HETATM   35  H27 UNL     1     -10.877   6.681  14.476  1.00  0.00     0.218 HD
ENDBRANCH  26  34
TORSDOF 1
ENDMDL
