MODEL 1
REMARK minimizedAffinity -9.56306744
REMARK CNNscore 0.622200429
REMARK CNNaffinity 8.12079239
REMARK  12 active torsions:
REMARK  status: ('A' for Active; 'I' for Inactive)
REMARK    1  A    between atoms: C2_2  and  C3_4 
REMARK    2  A    between atoms: C3_4  and  O2_5 
REMARK    3  A    between atoms: N1_15  and  O3_17 
REMARK    4  A    between atoms: O3_17  and  C13_18 
REMARK    5  A    between atoms: C13_18  and  C14_19 
REMARK       I    between atoms: C14_19  and  N2_21 
REMARK    6  A    between atoms: N2_21  and  C15_22 
REMARK    7  A    between atoms: C15_22  and  C16_23 
REMARK       I    between atoms: C16_23  and  N3_25 
REMARK    8  A    between atoms: N3_25  and  C17_26 
REMARK    9  A    between atoms: C17_26  and  C18_27 
REMARK   10  A    between atoms: C17_26  and  C27_37 
REMARK   11  A    between atoms: C18_27  and  C19_28 
REMARK   12  A    between atoms: C27_37  and  O7_39 
ROOT
HETATM    1  O3  UNL     1       0.294  52.431 -20.095  1.00  0.00    -0.271 OA
ENDROOT
BRANCH   1   2
HETATM    2  N1  UNL     1       1.115  52.974 -19.096  1.00  0.00    -0.271 N 
HETATM    3  C12 UNL     1       0.939  52.416 -17.937  1.00  0.00     0.032 C 
HETATM    4  C11 UNL     1      -0.043  51.346 -17.611  1.00  0.00     0.030 C 
HETATM    5  C28 UNL     1       1.783  52.941 -16.796  1.00  0.00     0.060 C 
HETATM    6  C10 UNL     1      -0.056  50.746 -16.403  1.00  0.00    -0.069 C 
HETATM    7  C9  UNL     1      -1.140  49.745 -16.076  1.00  0.00     0.035 C 
HETATM    8  C30 UNL     1       0.962  51.029 -15.290  1.00  0.00    -0.016 C 
HETATM    9  C8  UNL     1      -0.563  48.443 -15.535  1.00  0.00     0.010 C 
HETATM   10  C7  UNL     1       0.340  48.688 -14.318  1.00  0.00    -0.004 C 
HETATM   11  C6  UNL     1       0.836  47.356 -13.711  1.00  0.00     0.002 C 
HETATM   12  C32 UNL     1       1.486  49.667 -14.683  1.00  0.00     0.002 C 
HETATM   13  C5  UNL     1       1.540  46.401 -14.690  1.00  0.00     0.009 C 
HETATM   14  C35 UNL     1       1.843  47.518 -12.550  1.00  0.00    -0.002 C 
HETATM   15  C4  UNL     1       2.535  45.577 -13.865  1.00  0.00     0.047 C 
HETATM   16  C3  UNL     1       2.414  46.069 -12.408  1.00  0.00     0.125 C 
HETATM   17  C34 UNL     1       2.960  48.526 -12.939  1.00  0.00     0.013 C 
HETATM   18  C36 UNL     1       1.152  48.014 -11.267  1.00  0.00     0.019 C 
HETATM   19  C33 UNL     1       2.428  49.856 -13.477  1.00  0.00     0.007 C 
HETATM   20  C29 UNL     1       2.181  51.803 -15.871  1.00  0.00     0.020 C 
HETATM   21  C31 UNL     1       0.275  51.914 -14.223  1.00  0.00     0.020 C 
ATOM     22  H1  UNL     1       1.780  53.729 -19.263  1.00  0.00     0.194 HD
BRANCH  16  23
HETATM   23  C2  UNL     1       1.480  45.110 -11.617  1.00  0.00     0.158 C 
HETATM   24  C1  UNL     1       0.851  43.967 -12.375  1.00  0.00     0.094 C 
HETATM   25  O1  UNL     1       1.252  45.254 -10.413  1.00  0.00    -0.295 OA
ENDBRANCH  16  23
BRANCH  16  26
HETATM   26  O2  UNL     1       3.706  46.092 -11.809  1.00  0.00    -0.381 OA
HETATM   27  H4  UNL     1       4.148  45.246 -12.010  1.00  0.00     0.211 HD
ENDBRANCH  16  26
ENDBRANCH   1   2
BRANCH   1  28
HETATM   28  C13 UNL     1       1.061  52.363 -21.294  1.00  0.00     0.303 C 
BRANCH  28  29
HETATM   29  C14 UNL     1       1.190  53.727 -21.961  1.00  0.00     0.244 C 
HETATM   30  O4  UNL     1       1.586  54.717 -21.352  1.00  0.00    -0.271 OA
HETATM   31  N2  UNL     1       0.748  53.787 -23.267  1.00  0.00    -0.350 N 
HETATM   32  H18 UNL     1       0.681  52.898 -23.750  1.00  0.00     0.163 HD
BRANCH  31  33
HETATM   33  C15 UNL     1       0.999  54.983 -24.066  1.00  0.00     0.225 C 
BRANCH  33  34
HETATM   34  C16 UNL     1       0.500  54.898 -25.516  1.00  0.00     0.236 C 
HETATM   35  O5  UNL     1       0.251  55.900 -26.180  1.00  0.00    -0.272 OA
HETATM   36  N3  UNL     1       0.440  53.628 -26.032  1.00  0.00    -0.345 N 
HETATM   37  H21 UNL     1       0.612  52.849 -25.406  1.00  0.00     0.163 HD
BRANCH  36  38
HETATM   38  C17 UNL     1      -0.151  53.323 -27.340  1.00  0.00     0.186 C 
BRANCH  38  39
HETATM   39  C18 UNL     1      -1.658  53.056 -27.197  1.00  0.00     0.077 C 
BRANCH  39  40
HETATM   40  C19 UNL     1      -1.991  51.960 -26.231  1.00  0.00    -0.028 A 
HETATM   41  C20 UNL     1      -1.647  51.933 -24.892  1.00  0.00     0.096 A 
HETATM   42  N4  UNL     1      -2.103  50.763 -24.352  1.00  0.00    -0.365 N 
HETATM   43  C21 UNL     1      -2.735  50.010 -25.314  1.00  0.00     0.042 A 
HETATM   44  H26 UNL     1      -1.988  50.481 -23.388  1.00  0.00     0.165 HD
HETATM   45  C22 UNL     1      -3.340  48.750 -25.217  1.00  0.00     0.030 A 
HETATM   46  C26 UNL     1      -2.686  50.737 -26.504  1.00  0.00    -0.002 A 
HETATM   47  C23 UNL     1      -3.917  48.219 -26.374  1.00  0.00     0.002 A 
HETATM   48  C24 UNL     1      -3.886  48.919 -27.578  1.00  0.00     0.001 A 
HETATM   49  C25 UNL     1      -3.274  50.176 -27.657  1.00  0.00     0.014 A 
ENDBRANCH  39  40
ENDBRANCH  38  39
BRANCH  38  50
HETATM   50  C27 UNL     1       0.544  52.086 -27.916  1.00  0.00     0.163 C 
HETATM   51  O6  UNL     1       1.654  51.659 -27.639  1.00  0.00    -0.648 OA
BRANCH  50  52
HETATM   52  O7  UNL     1      -0.176  51.456 -28.880  1.00  0.00    -0.775 OA
HETATM   53  H31 UNL     1       0.407  50.710 -29.138  1.00  0.00     0.167 HD
ENDBRANCH  50  52
ENDBRANCH  38  50
ENDBRANCH  36  38
ENDBRANCH  33  34
ENDBRANCH  31  33
ENDBRANCH  28  29
ENDBRANCH   1  28
TORSDOF 12
ENDMDL
