MODEL 1
REMARK minimizedAffinity -6.46878767
REMARK CNNscore 0.60518533
REMARK CNNaffinity 6.62312126
REMARK  4 active torsions:
REMARK  status: ('A' for Active; 'I' for Inactive)
REMARK    1  A    between atoms: C2_2  and  C3_3 
REMARK    2  A    between atoms: C2_2  and  C9_9 
REMARK    3  A    between atoms: C3_3  and  C4_4 
REMARK    4  A    between atoms: C4_4  and  C5_5 
ROOT
HETATM    1  C9  UNL     1     -15.417  -9.360  28.120  1.00  0.00     0.018 C 
HETATM    2  C10 UNL     1     -15.155  -9.770  29.594  1.00  0.00     0.010 C 
HETATM    3  C11 UNL     1     -14.411 -11.115  29.521  1.00  0.00     0.011 C 
HETATM    4  C12 UNL     1     -13.520 -10.985  28.265  1.00  0.00    -0.032 C 
HETATM    5  C13 UNL     1     -12.364 -10.003  28.638  1.00  0.00     0.016 C 
HETATM    6  C14 UNL     1     -14.544 -10.342  27.286  1.00  0.00     0.002 C 
HETATM    7  C15 UNL     1     -13.882  -9.924  25.982  1.00  0.00     0.006 C 
HETATM    8  C16 UNL     1     -13.232 -11.144  25.300  1.00  0.00     0.006 C 
HETATM    9  C17 UNL     1     -12.274 -11.951  26.221  1.00  0.00     0.003 C 
HETATM   10  C18 UNL     1     -11.457 -13.116  25.504  1.00  0.00    -0.035 C 
HETATM   11  C19 UNL     1     -12.392 -14.203  24.926  1.00  0.00     0.016 C 
HETATM   12  C20 UNL     1     -10.643 -12.505  24.321  1.00  0.00     0.017 C 
HETATM   13  C21 UNL     1      -9.617 -13.447  23.705  1.00  0.00     0.080 C 
HETATM   14  C22 UNL     1      -8.693 -14.031  24.745  1.00  0.00     0.135 C 
HETATM   15  O1  UNL     1      -7.480 -14.074  24.528  1.00  0.00    -0.297 OA
HETATM   16  C23 UNL     1      -9.329 -14.655  25.998  1.00  0.00     0.017 C 
HETATM   17  C24 UNL     1      -8.206 -14.847  27.050  1.00  0.00     0.023 C 
HETATM   18  C25 UNL     1      -9.851 -16.052  25.638  1.00  0.00     0.023 C 
HETATM   19  C26 UNL     1     -10.410 -13.661  26.551  1.00  0.00     0.009 C 
HETATM   20  C27 UNL     1     -11.095 -14.128  27.853  1.00  0.00     0.007 C 
HETATM   21  C28 UNL     1     -11.883 -12.993  28.520  1.00  0.00     0.011 C 
HETATM   22  C29 UNL     1     -12.950 -12.333  27.609  1.00  0.00    -0.032 C 
HETATM   23  C30 UNL     1     -14.093 -13.374  27.430  1.00  0.00     0.016 C 
ENDROOT
BRANCH   1  24
HETATM   24  C2  UNL     1     -15.388  -7.878  27.752  1.00  0.00    -0.084 C 
HETATM   25  C1  UNL     1     -16.328  -7.273  27.006  1.00  0.00     0.014 C 
BRANCH  24  26
HETATM   26  C3  UNL     1     -14.141  -7.147  28.254  1.00  0.00     0.037 C 
BRANCH  26  27
HETATM   27  C4  UNL     1     -14.085  -5.623  28.075  1.00  0.00     0.031 C 
BRANCH  27  28
HETATM   28  C5  UNL     1     -13.801  -4.926  29.380  1.00  0.00    -0.024 C 
HETATM   29  C6  UNL     1     -12.972  -5.327  30.363  1.00  0.00    -0.091 C 
HETATM   30  C7  UNL     1     -12.187  -6.611  30.361  1.00  0.00     0.042 C 
HETATM   31  C8  UNL     1     -12.776  -4.483  31.595  1.00  0.00     0.042 C 
ENDBRANCH  27  28
ENDBRANCH  26  27
ENDBRANCH  24  26
ENDBRANCH   1  24
TORSDOF 4
ENDMDL
