MODEL 1
REMARK minimizedAffinity -7.59079838
REMARK CNNscore 0.825823009
REMARK CNNaffinity 7.1817112
REMARK  7 active torsions:
REMARK  status: ('A' for Active; 'I' for Inactive)
REMARK    1  A    between atoms: C2_2  and  C3_3 
REMARK    2  A    between atoms: C2_2  and  C4_5 
REMARK    3  A    between atoms: C3_3  and  O1_4 
REMARK    4  A    between atoms: C4_5  and  C5_7 
REMARK    5  A    between atoms: C5_7  and  C6_8 
REMARK    6  A    between atoms: C6_8  and  C7_9 
REMARK    7  A    between atoms: C7_9  and  C9_11 
ROOT
HETATM    1  C9  UNL     1       4.852  55.967  -8.365  1.00  0.00    -0.002 C 
HETATM    2  C10 UNL     1       5.692  54.973  -9.217  1.00  0.00     0.007 C 
HETATM    3  C11 UNL     1       4.713  54.138 -10.061  1.00  0.00     0.015 C 
HETATM    4  C12 UNL     1       3.363  54.869  -9.952  1.00  0.00    -0.005 C 
HETATM    5  C13 UNL     1       3.378  56.014 -11.013  1.00  0.00     0.021 C 
HETATM    6  C14 UNL     1       2.062  54.118 -10.206  1.00  0.00    -0.000 C 
HETATM    7  C15 UNL     1       0.904  54.487  -9.598  1.00  0.00    -0.060 C 
HETATM    8  C16 UNL     1       0.897  55.644  -8.587  1.00  0.00     0.036 C 
HETATM    9  C17 UNL     1       2.246  56.303  -8.228  1.00  0.00     0.015 C 
HETATM   10  C18 UNL     1       3.424  55.347  -8.446  1.00  0.00    -0.028 C 
HETATM   11  C19 UNL     1       3.314  54.171  -7.425  1.00  0.00     0.016 C 
HETATM   12  C20 UNL     1      -0.457  53.776  -9.839  1.00  0.00    -0.014 C 
HETATM   13  C21 UNL     1      -0.728  52.875  -8.614  1.00  0.00     0.020 C 
HETATM   14  C22 UNL     1      -1.590  54.818  -9.993  1.00  0.00     0.021 C 
HETATM   15  C23 UNL     1      -2.940  54.279 -10.449  1.00  0.00     0.080 C 
HETATM   16  C24 UNL     1      -2.969  52.828 -10.866  1.00  0.00     0.135 C 
HETATM   17  O3  UNL     1      -4.019  52.193 -10.736  1.00  0.00    -0.297 OA
HETATM   18  C25 UNL     1      -1.738  52.211 -11.539  1.00  0.00     0.018 C 
HETATM   19  C26 UNL     1      -1.683  50.714 -11.156  1.00  0.00     0.023 C 
HETATM   20  C27 UNL     1      -1.986  52.293 -13.060  1.00  0.00     0.023 C 
HETATM   21  C28 UNL     1      -0.423  52.987 -11.185  1.00  0.00     0.020 C 
HETATM   22  C29 UNL     1       0.837  52.124 -11.278  1.00  0.00     0.090 C 
HETATM   23  C30 UNL     1       2.069  52.983 -11.179  1.00  0.00     0.157 C 
HETATM   24  O4  UNL     1       3.057  52.728 -11.864  1.00  0.00    -0.293 OA
ENDROOT
BRANCH   1  25
HETATM   25  C7  UNL     1       5.514  56.245  -6.978  1.00  0.00    -0.013 C 
HETATM   26  C8  UNL     1       5.190  57.646  -6.453  1.00  0.00     0.010 C 
BRANCH  25  27
HETATM   27  C6  UNL     1       7.052  56.044  -7.071  1.00  0.00     0.012 C 
BRANCH  27  28
HETATM   28  C5  UNL     1       7.715  55.651  -5.745  1.00  0.00     0.084 C 
BRANCH  28  29
HETATM   29  C4  UNL     1       8.670  56.720  -5.229  1.00  0.00     0.157 C 
HETATM   30  O2  UNL     1       8.327  57.895  -5.089  1.00  0.00    -0.293 OA
BRANCH  29  31
HETATM   31  C2  UNL     1      10.077  56.332  -4.862  1.00  0.00     0.002 C 
HETATM   32  C1  UNL     1      10.432  55.058  -4.624  1.00  0.00     0.025 C 
BRANCH  31  33
HETATM   33  C3  UNL     1      11.059  57.468  -4.800  1.00  0.00     0.205 C 
BRANCH  33  34
HETATM   34  O1  UNL     1      12.386  56.976  -4.921  1.00  0.00    -0.396 OA
HETATM   35  H5  UNL     1      12.538  56.433  -4.121  1.00  0.00     0.209 HD
ENDBRANCH  33  34
ENDBRANCH  31  33
ENDBRANCH  29  31
ENDBRANCH  28  29
ENDBRANCH  27  28
ENDBRANCH  25  27
ENDBRANCH   1  25
TORSDOF 7
ENDMDL
