MODEL 1
REMARK minimizedAffinity -8.10672855
REMARK CNNscore 0.667395115
REMARK CNNaffinity 7.40855551
REMARK  6 active torsions:
REMARK  status: ('A' for Active; 'I' for Inactive)
REMARK    1  A    between atoms: C2_2  and  C30_32 
REMARK    2  A    between atoms: C3_3  and  C4_4 
REMARK    3  A    between atoms: C4_4  and  C5_5 
REMARK    4  A    between atoms: C5_5  and  C6_6 
REMARK    5  A    between atoms: C6_6  and  C8_8 
REMARK    6  A    between atoms: C30_32  and  O4_34 
ROOT
HETATM    1  C8  UNL     1      -2.469   7.279  13.646  1.00  0.00    -0.002 C 
HETATM    2  C9  UNL     1      -2.598   6.193  12.540  1.00  0.00     0.007 C 
HETATM    3  C10 UNL     1      -4.057   5.694  12.563  1.00  0.00     0.015 C 
HETATM    4  C11 UNL     1      -4.623   6.185  13.908  1.00  0.00    -0.005 C 
HETATM    5  C12 UNL     1      -4.163   5.169  15.001  1.00  0.00     0.021 C 
HETATM    6  C13 UNL     1      -6.126   6.310  14.109  1.00  0.00    -0.000 C 
HETATM    7  C14 UNL     1      -6.647   7.238  14.958  1.00  0.00    -0.060 C 
HETATM    8  C15 UNL     1      -5.745   8.238  15.680  1.00  0.00     0.036 C 
HETATM    9  C16 UNL     1      -4.230   8.171  15.391  1.00  0.00     0.015 C 
HETATM   10  C17 UNL     1      -3.951   7.615  13.987  1.00  0.00    -0.028 C 
HETATM   11  C18 UNL     1      -4.527   8.617  12.941  1.00  0.00     0.016 C 
HETATM   12  C19 UNL     1      -8.165   7.284  15.256  1.00  0.00    -0.014 C 
HETATM   13  C20 UNL     1      -8.390   6.222  16.364  1.00  0.00     0.020 C 
HETATM   14  C21 UNL     1      -8.715   8.634  15.812  1.00  0.00     0.021 C 
HETATM   15  C22 UNL     1      -9.250   9.559  14.729  1.00  0.00     0.080 C 
HETATM   16  C23 UNL     1     -10.446   8.905  14.067  1.00  0.00     0.135 C 
HETATM   17  O1  UNL     1     -11.443   9.572  13.784  1.00  0.00    -0.297 OA
HETATM   18  C24 UNL     1     -10.354   7.398  13.757  1.00  0.00     0.018 C 
HETATM   19  C25 UNL     1     -11.310   6.656  14.697  1.00  0.00     0.023 C 
HETATM   20  C26 UNL     1     -10.848   7.197  12.308  1.00  0.00     0.023 C 
HETATM   21  C27 UNL     1      -8.857   6.971  13.882  1.00  0.00     0.020 C 
HETATM   22  C28 UNL     1      -8.527   5.545  13.439  1.00  0.00     0.090 C 
HETATM   23  C29 UNL     1      -7.027   5.310  13.438  1.00  0.00     0.157 C 
HETATM   24  O2  UNL     1      -6.568   4.299  12.910  1.00  0.00    -0.293 OA
ENDROOT
BRANCH   1  25
HETATM   25  C6  UNL     1      -1.393   8.363  13.338  1.00  0.00    -0.014 C 
HETATM   26  C7  UNL     1      -0.134   8.365  14.214  1.00  0.00     0.010 C 
BRANCH  25  27
HETATM   27  C5  UNL     1      -1.013   8.374  11.840  1.00  0.00     0.008 C 
BRANCH  27  28
HETATM   28  C4  UNL     1       0.373   7.782  11.562  1.00  0.00     0.028 C 
BRANCH  28  29
HETATM   29  C3  UNL     1       0.910   8.255  10.237  1.00  0.00    -0.013 C 
HETATM   30  C2  UNL     1       1.740   7.613   9.393  1.00  0.00     0.008 C 
HETATM   31  C1  UNL     1       2.109   8.195   8.057  1.00  0.00     0.055 C 
BRANCH  30  32
HETATM   32  C30 UNL     1       2.358   6.293   9.653  1.00  0.00     0.171 C 
HETATM   33  O3  UNL     1       1.765   5.308  10.061  1.00  0.00    -0.646 OA
BRANCH  32  34
HETATM   34  O4  UNL     1       3.651   6.227   9.301  1.00  0.00    -0.773 OA
HETATM   35  H44 UNL     1       3.893   5.299   9.491  1.00  0.00     0.167 HD
ENDBRANCH  32  34
ENDBRANCH  30  32
ENDBRANCH  28  29
ENDBRANCH  27  28
ENDBRANCH  25  27
ENDBRANCH   1  25
TORSDOF 6
ENDMDL
