MODEL 1
REMARK minimizedAffinity -10.0223265
REMARK  6 active torsions:
REMARK  status: ('A' for Active; 'I' for Inactive)
REMARK    1  A    between atoms: C3_3  and  C4_4 
REMARK    2  A    between atoms: C4_4  and  O1_5 
REMARK    3  A    between atoms: C6_9  and  C7_10 
REMARK    4  A    between atoms: C7_10  and  C9_12 
REMARK    5  A    between atoms: C21_26  and  C22_27 
REMARK    6  A    between atoms: C22_27  and  O6_28 
ROOT
HETATM    1  C9  UNL     1      -2.102  51.998 -22.862  1.00  0.00     0.000 C 
HETATM    2  C10 UNL     1      -3.595  51.573 -22.730  1.00  0.00     0.006 C 
HETATM    3  C11 UNL     1      -3.819  51.115 -21.283  1.00  0.00     0.006 C 
HETATM    4  C12 UNL     1      -2.524  51.483 -20.578  1.00  0.00    -0.001 C 
HETATM    5  C13 UNL     1      -2.232  50.812 -19.224  1.00  0.00    -0.002 C 
HETATM    6  C14 UNL     1      -3.386  51.083 -18.253  1.00  0.00     0.040 C 
HETATM    7  C15 UNL     1      -3.092  50.731 -16.843  1.00  0.00     0.159 A 
HETATM    8  O4  UNL     1      -2.525  49.444 -16.606  1.00  0.00    -0.368 OA
HETATM    9  C16 UNL     1      -1.677  50.580 -16.332  1.00  0.00     0.104 A 
HETATM   10  C17 UNL     1      -1.489  50.866 -14.861  1.00  0.00     0.042 C 
HETATM   11  C18 UNL     1      -0.098  50.500 -14.378  1.00  0.00     0.010 C 
HETATM   12  C19 UNL     1       0.974  51.259 -15.143  1.00  0.00     0.079 C 
HETATM   13  C20 UNL     1       0.568  51.614 -16.565  1.00  0.00     0.141 C 
HETATM   14  O5  UNL     1       1.098  52.587 -17.104  1.00  0.00    -0.297 OA
HETATM   15  C21 UNL     1      -0.464  50.697 -17.278  1.00  0.00     0.079 C 
HETATM   16  C23 UNL     1      -0.884  51.357 -18.657  1.00  0.00     0.011 C 
HETATM   17  C24 UNL     1       0.243  51.306 -19.730  1.00  0.00     0.007 C 
HETATM   18  C25 UNL     1      -0.155  51.902 -21.090  1.00  0.00     0.010 C 
HETATM   19  C26 UNL     1      -1.434  51.257 -21.656  1.00  0.00    -0.036 C 
HETATM   20  C27 UNL     1      -1.196  49.765 -21.990  1.00  0.00     0.016 C 
ENDROOT
BRANCH   1  21
HETATM   21  C7  UNL     1      -1.545  51.804 -24.316  1.00  0.00     0.016 C 
HETATM   22  C8  UNL     1      -1.856  50.405 -24.861  1.00  0.00     0.013 C 
BRANCH  21  23
HETATM   23  C6  UNL     1       0.001  52.085 -24.364  1.00  0.00     0.140 C 
HETATM   24  O3  UNL     1       0.261  53.505 -24.311  1.00  0.00    -0.311 OA
HETATM   25  C5  UNL     1       0.165  54.272 -25.430  1.00  0.00     0.292 C 
HETATM   26  C3  UNL     1       0.043  53.557 -26.736  1.00  0.00     0.042 C 
HETATM   27  O2  UNL     1       0.214  55.494 -25.362  1.00  0.00    -0.260 OA
HETATM   28  C2  UNL     1       0.400  52.255 -26.812  1.00  0.00    -0.067 C 
HETATM   29  C1  UNL     1       0.444  51.434 -28.068  1.00  0.00     0.044 C 
HETATM   30  C28 UNL     1       0.790  51.529 -25.554  1.00  0.00     0.067 C 
BRANCH  26  31
HETATM   31  C4  UNL     1      -0.373  54.414 -27.895  1.00  0.00     0.209 C 
BRANCH  31  32
HETATM   32  O1  UNL     1      -1.733  54.148 -28.229  1.00  0.00    -0.396 OA
HETATM   33  H6  UNL     1      -1.833  53.188 -28.328  1.00  0.00     0.209 HD
ENDBRANCH  31  32
ENDBRANCH  26  31
ENDBRANCH  21  23
ENDBRANCH   1  21
BRANCH  15  34
HETATM   34  C22 UNL     1       0.252  49.322 -17.445  1.00  0.00     0.185 C 
BRANCH  34  35
HETATM   35  O6  UNL     1      -0.280  48.297 -16.616  1.00  0.00    -0.400 OA
HETATM   36  H30 UNL     1       0.324  47.537 -16.661  1.00  0.00     0.209 HD
ENDBRANCH  34  35
ENDBRANCH  15  34
TORSDOF 6
ENDMDL
