MODEL 1
REMARK minimizedAffinity -8.82192135
REMARK CNNscore 0.617189646
REMARK CNNaffinity 6.40475416
REMARK  12 active torsions:
REMARK  status: ('A' for Active; 'I' for Inactive)
REMARK    1  A    between atoms: O1_2  and  C2_3 
REMARK    2  A    between atoms: C4_5  and  O2_6 
REMARK    3  A    between atoms: O2_6  and  C5_7 
REMARK    4  A    between atoms: C8_10  and  C9_11 
REMARK    5  A    between atoms: N1_12  and  C10_14 
REMARK    6  A    between atoms: C10_14  and  C11_15 
REMARK    7  A    between atoms: C11_15  and  C12_16 
REMARK    8  A    between atoms: C12_16  and  O3_17 
REMARK    9  A    between atoms: C18_23  and  C19_24 
REMARK   10  A    between atoms: C25_32  and  O6_33 
REMARK   11  A    between atoms: C29_37  and  O7_38 
REMARK   12  A    between atoms: C33_43  and  O9_44 
ROOT
HETATM    1  C5  UNL     1       7.073  64.433 -35.757  1.00  0.00     0.127 C 
HETATM    2  C6  UNL     1       6.030  64.276 -36.846  1.00  0.00     0.033 C 
HETATM    3  C7  UNL     1       4.655  64.656 -36.338  1.00  0.00     0.021 C 
HETATM    4  C8  UNL     1       4.573  66.050 -35.621  1.00  0.00     0.026 C 
HETATM    5  C13 UNL     1       3.536  66.926 -36.468  1.00  0.00     0.009 C 
HETATM    6  C14 UNL     1       2.072  66.553 -36.210  1.00  0.00     0.007 C 
HETATM    7  C15 UNL     1       1.202  67.207 -37.265  1.00  0.00     0.013 C 
HETATM    8  C16 UNL     1       1.190  68.741 -37.145  1.00  0.00    -0.005 C 
HETATM    9  C17 UNL     1       0.165  69.076 -36.016  1.00  0.00     0.019 C 
HETATM   10  C18 UNL     1       0.680  69.447 -38.467  1.00  0.00     0.028 C 
HETATM   11  C23 UNL     1       1.550  70.709 -38.557  1.00  0.00     0.013 C 
HETATM   12  C24 UNL     1       2.920  70.254 -38.075  1.00  0.00     0.040 C 
HETATM   13  C25 UNL     1       2.611  69.384 -36.840  1.00  0.00     0.070 C 
HETATM   14  C26 UNL     1       3.751  68.440 -36.304  1.00  0.00     0.026 C 
HETATM   15  C27 UNL     1       5.158  68.823 -36.816  1.00  0.00     0.011 C 
HETATM   16  C28 UNL     1       6.193  67.691 -36.719  1.00  0.00     0.039 C 
HETATM   17  C29 UNL     1       5.968  66.789 -35.493  1.00  0.00     0.073 C 
HETATM   18  C30 UNL     1       7.202  65.875 -35.268  1.00  0.00     0.071 C 
ENDROOT
BRANCH   1  19
HETATM   19  O2  UNL     1       8.309  64.004 -36.326  1.00  0.00    -0.356 OA
BRANCH  19  20
HETATM   20  C4  UNL     1       9.128  63.216 -35.464  1.00  0.00     0.263 C 
HETATM   21  C3  UNL     1      10.555  63.729 -35.602  1.00  0.00     0.095 C 
HETATM   22  C2  UNL     1      11.499  63.025 -34.624  1.00  0.00     0.156 C 
HETATM   23  C33 UNL     1      10.945  63.145 -33.188  1.00  0.00     0.175 C 
HETATM   24  C31 UNL     1       9.453  62.736 -33.127  1.00  0.00     0.151 C 
HETATM   25  O8  UNL     1       8.664  63.383 -34.125  1.00  0.00    -0.354 OA
HETATM   26  C32 UNL     1       9.208  61.224 -33.139  1.00  0.00     0.042 C 
BRANCH  22  27
HETATM   27  O1  UNL     1      12.779  63.658 -34.794  1.00  0.00    -0.388 OA
HETATM   28  C1  UNL     1      13.032  64.155 -36.095  1.00  0.00     0.202 C 
ENDBRANCH  22  27
BRANCH  23  29
HETATM   29  O9  UNL     1      11.715  62.391 -32.248  1.00  0.00    -0.390 OA
HETATM   30  H51 UNL     1      11.730  61.447 -32.508  1.00  0.00     0.210 HD
ENDBRANCH  23  29
ENDBRANCH  19  20
ENDBRANCH   1  19
BRANCH  17  31
HETATM   31  O7  UNL     1       5.977  67.733 -34.392  1.00  0.00    -0.389 OA
HETATM   32  H43 UNL     1       5.682  67.237 -33.602  1.00  0.00     0.210 HD
ENDBRANCH  17  31
BRANCH   4  33
HETATM   33  C9  UNL     1       4.009  65.696 -34.234  1.00  0.00     0.068 C 
HETATM   34  N1  UNL     1       4.720  65.104 -33.334  1.00  0.00    -0.401 N 
ATOM     35  H1  UNL     1       5.721  64.943 -33.446  1.00  0.00     0.158 HD
BRANCH  34  36
HETATM   36  C10 UNL     1       3.984  64.681 -32.139  1.00  0.00     0.121 C 
BRANCH  36  37
HETATM   37  C11 UNL     1       3.823  63.162 -32.151  1.00  0.00     0.045 C 
BRANCH  37  38
HETATM   38  C12 UNL     1       4.474  62.536 -33.376  1.00  0.00     0.165 C 
BRANCH  38  39
HETATM   39  O3  UNL     1       5.893  62.485 -33.233  1.00  0.00    -0.401 OA
HETATM   40  H20 UNL     1       6.075  61.983 -32.420  1.00  0.00     0.209 HD
ENDBRANCH  38  39
ENDBRANCH  37  38
ENDBRANCH  36  37
ENDBRANCH  34  36
ENDBRANCH   4  33
BRANCH  13  41
HETATM   41  O6  UNL     1       2.437  70.368 -35.786  1.00  0.00    -0.389 OA
HETATM   42  H37 UNL     1       3.317  70.739 -35.577  1.00  0.00     0.210 HD
ENDBRANCH  13  41
BRANCH  10  43
HETATM   43  C19 UNL     1       0.702  68.663 -39.764  1.00  0.00    -0.045 A 
HETATM   44  C20 UNL     1      -0.371  68.207 -40.420  1.00  0.00     0.087 A 
HETATM   45  C21 UNL     1       0.112  67.491 -41.599  1.00  0.00     0.283 A 
HETATM   46  O4  UNL     1      -0.602  66.938 -42.413  1.00  0.00    -0.260 OA
HETATM   47  O5  UNL     1       1.473  67.532 -41.625  1.00  0.00    -0.314 OA
HETATM   48  C22 UNL     1       1.936  68.295 -40.513  1.00  0.00     0.213 A 
ENDBRANCH  10  43
TORSDOF 12
ENDMDL
