MODEL 1
REMARK minimizedAffinity -7.43896389
REMARK CNNscore 0.621311367
REMARK CNNaffinity 7.20718765
REMARK  6 active torsions:
REMARK  status: ('A' for Active; 'I' for Inactive)
REMARK    1  A    between atoms: C3_3  and  C4_4 
REMARK    2  A    between atoms: C4_4  and  O1_5 
REMARK    3  A    between atoms: C7_9  and  O3_10 
REMARK    4  A    between atoms: C25_30  and  C26_31 
REMARK    5  A    between atoms: C39_45  and  O7_47 
REMARK    6  A    between atoms: C41_48  and  O8_49 
ROOT
HETATM    1  C1  UNL     1      -5.214  17.068   3.969  1.00  0.00     0.013 C 
HETATM    2  C2  UNL     1      -3.982  17.234   3.082  1.00  0.00     0.023 C 
HETATM    3  C3  UNL     1      -4.169  16.486   1.732  1.00  0.00     0.047 C 
HETATM    4  C5  UNL     1      -3.097  15.367   1.718  1.00  0.00     0.160 C 
HETATM    5  O2  UNL     1      -2.788  15.240   3.111  1.00  0.00    -0.373 OA
HETATM    6  C6  UNL     1      -2.725  16.577   3.644  1.00  0.00     0.167 C 
HETATM    7  C7  UNL     1      -2.437  16.516   5.154  1.00  0.00     0.226 C 
HETATM    8  C8  UNL     1      -1.137  15.827   5.296  1.00  0.00    -0.072 C 
HETATM    9  C9  UNL     1      -0.140  15.182   5.108  1.00  0.00    -0.103 C 
HETATM   10  C10 UNL     1       0.947  14.290   4.702  1.00  0.00     0.099 C 
HETATM   11  C11 UNL     1       2.022  14.882   3.779  1.00  0.00     0.009 C 
HETATM   12  C12 UNL     1       2.812  16.018   4.558  1.00  0.00     0.016 C 
HETATM   13  C13 UNL     1       4.137  16.368   3.858  1.00  0.00     0.027 C 
HETATM   14  C14 UNL     1       4.365  15.669   2.522  1.00  0.00    -0.036 C 
HETATM   15  C15 UNL     1       5.616  15.121   2.496  1.00  0.00     0.057 C 
HETATM   16  C16 UNL     1       6.652  16.028   3.125  1.00  0.00     0.154 C 
HETATM   17  O4  UNL     1       7.735  15.638   3.526  1.00  0.00    -0.293 OA
HETATM   18  C17 UNL     1       6.196  17.474   3.059  1.00  0.00     0.071 C 
HETATM   19  C18 UNL     1       7.164  18.626   2.921  1.00  0.00     0.045 C 
HETATM   20  C19 UNL     1       6.452  19.633   1.983  1.00  0.00     0.122 C 
HETATM   21  C20 UNL     1       5.139  20.081   2.690  1.00  0.00     0.033 C 
HETATM   22  C21 UNL     1       4.186  18.913   3.091  1.00  0.00     0.013 C 
HETATM   23  C22 UNL     1       4.884  17.754   3.855  1.00  0.00    -0.026 C 
HETATM   24  C23 UNL     1       5.166  18.178   5.307  1.00  0.00     0.016 C 
HETATM   25  O5  UNL     1       6.054  19.047   0.714  1.00  0.00    -0.384 OA
HETATM   26  C24 UNL     1       7.100  18.492  -0.099  1.00  0.00     0.190 C 
HETATM   27  C25 UNL     1       6.616  17.512  -1.219  1.00  0.00     0.121 C 
HETATM   28  C32 UNL     1       5.958  16.257  -0.729  1.00  0.00    -0.093 C 
HETATM   29  C33 UNL     1       5.344  15.247  -0.468  1.00  0.00    -0.080 C 
HETATM   30  C34 UNL     1       4.428  14.088  -0.213  1.00  0.00     0.263 C 
HETATM   31  O6  UNL     1       3.580  14.118   0.985  1.00  0.00    -0.363 OA
HETATM   32  C35 UNL     1       3.202  15.415   1.548  1.00  0.00     0.094 C 
HETATM   33  C36 UNL     1       2.729  16.271   0.345  1.00  0.00     0.044 C 
HETATM   34  C37 UNL     1       1.408  15.560  -0.074  1.00  0.00     0.012 C 
HETATM   35  C38 UNL     1       0.881  14.752   1.176  1.00  0.00     0.034 C 
HETATM   36  C39 UNL     1      -0.662  14.407   1.043  1.00  0.00     0.087 C 
HETATM   37  C40 UNL     1      -1.037  13.273   2.008  1.00  0.00     0.049 C 
HETATM   38  C41 UNL     1      -1.793  15.531   0.865  1.00  0.00     0.181 C 
HETATM   39  C42 UNL     1       1.717  15.426   2.334  1.00  0.00     0.002 C 
HETATM   40  C43 UNL     1       1.138  16.877   2.518  1.00  0.00     0.019 C 
ENDROOT
BRANCH  27  41
HETATM   41  C26 UNL     1       5.806  18.128  -2.356  1.00  0.00    -0.040 A 
HETATM   42  C27 UNL     1       5.778  19.505  -2.624  1.00  0.00     0.008 A 
HETATM   43  C28 UNL     1       5.006  20.013  -3.673  1.00  0.00     0.001 A 
HETATM   44  C29 UNL     1       4.242  19.156  -4.463  1.00  0.00     0.000 A 
HETATM   45  C30 UNL     1       4.241  17.789  -4.203  1.00  0.00     0.001 A 
HETATM   46  C31 UNL     1       5.015  17.282  -3.158  1.00  0.00     0.008 A 
ENDBRANCH  27  41
BRANCH  36  47
HETATM   47  O7  UNL     1      -0.686  13.714  -0.265  1.00  0.00    -0.387 OA
HETATM   48  H49 UNL     1      -1.546  13.270  -0.360  1.00  0.00     0.210 HD
ENDBRANCH  36  47
BRANCH  38  49
HETATM   49  O8  UNL     1      -1.300  16.859   0.984  1.00  0.00    -0.390 OA
HETATM   50  H51 UNL     1      -1.027  17.143   0.093  1.00  0.00     0.210 HD
ENDBRANCH  38  49
BRANCH   7  51
HETATM   51  O3  UNL     1      -2.340  17.816   5.721  1.00  0.00    -0.381 OA
HETATM   52  H12 UNL     1      -3.238  18.091   5.961  1.00  0.00     0.211 HD
ENDBRANCH   7  51
BRANCH   3  53
HETATM   53  C4  UNL     1      -4.236  17.399   0.516  1.00  0.00     0.172 C 
BRANCH  53  54
HETATM   54  O1  UNL     1      -4.436  16.629  -0.664  1.00  0.00    -0.400 OA
HETATM   55  H8  UNL     1      -5.371  16.357  -0.678  1.00  0.00     0.209 HD
ENDBRANCH  53  54
ENDBRANCH   3  53
TORSDOF 6
ENDMDL
