MODEL 1
REMARK minimizedAffinity -10.1535015
REMARK  8 active torsions:
REMARK  status: ('A' for Active; 'I' for Inactive)
REMARK    1  A    between atoms: C2_2  and  C3_3 
REMARK    2  A    between atoms: C2_2  and  C27_30 
REMARK    3  A    between atoms: C3_3  and  C4_4 
REMARK    4  A    between atoms: C4_4  and  C5_5 
REMARK    5  A    between atoms: C5_5  and  C7_7 
REMARK    6  A    between atoms: C26_28  and  O3_29 
REMARK    7  A    between atoms: C27_30  and  C29_32 
REMARK    8  A    between atoms: C29_32  and  O5_34 
ROOT
HETATM    1  C7  UNL     1      -1.049  51.229 -24.865  1.00  0.00    -0.002 C 
HETATM    2  C8  UNL     1      -0.250  52.552 -25.045  1.00  0.00     0.006 C 
HETATM    3  C9  UNL     1       0.209  52.982 -23.644  1.00  0.00     0.010 C 
HETATM    4  C10 UNL     1      -0.078  51.763 -22.767  1.00  0.00     0.027 C 
HETATM    5  C11 UNL     1      -0.081  51.872 -21.258  1.00  0.00    -0.036 C 
HETATM    6  C12 UNL     1      -0.766  50.983 -20.495  1.00  0.00     0.002 C 
HETATM    7  C13 UNL     1      -1.599  49.922 -21.195  1.00  0.00     0.157 C 
HETATM    8  O1  UNL     1      -2.239  49.096 -20.546  1.00  0.00    -0.293 OA
HETATM    9  C14 UNL     1      -1.621  49.853 -22.716  1.00  0.00     0.093 C 
HETATM   10  C15 UNL     1      -1.411  51.227 -23.348  1.00  0.00    -0.026 C 
HETATM   11  C16 UNL     1      -2.620  52.136 -23.023  1.00  0.00     0.016 C 
HETATM   12  C17 UNL     1      -0.758  51.011 -18.951  1.00  0.00    -0.008 C 
HETATM   13  C18 UNL     1      -2.125  51.605 -18.518  1.00  0.00     0.021 C 
HETATM   14  C19 UNL     1      -0.599  49.586 -18.327  1.00  0.00     0.022 C 
HETATM   15  C20 UNL     1       0.143  49.517 -16.991  1.00  0.00     0.080 C 
HETATM   16  C21 UNL     1      -0.007  50.785 -16.192  1.00  0.00     0.131 C 
HETATM   17  O2  UNL     1      -0.360  50.767 -15.014  1.00  0.00    -0.298 OA
HETATM   18  C22 UNL     1       0.384  52.082 -16.886  1.00  0.00     0.056 C 
HETATM   19  C23 UNL     1       1.712  52.560 -16.301  1.00  0.00     0.018 C 
HETATM   20  C24 UNL     1       0.443  51.875 -18.420  1.00  0.00     0.012 C 
HETATM   21  C25 UNL     1       0.549  53.208 -19.171  1.00  0.00     0.042 C 
HETATM   22  C26 UNL     1       0.749  52.983 -20.670  1.00  0.00     0.148 C 
ENDROOT
BRANCH   1  23
HETATM   23  C5  UNL     1      -2.091  50.991 -25.993  1.00  0.00    -0.014 C 
HETATM   24  C6  UNL     1      -3.441  51.703 -25.833  1.00  0.00     0.010 C 
BRANCH  23  25
HETATM   25  C4  UNL     1      -2.367  49.502 -26.315  1.00  0.00     0.009 C 
BRANCH  25  26
HETATM   26  C3  UNL     1      -3.107  48.699 -25.231  1.00  0.00     0.034 C 
BRANCH  26  27
HETATM   27  C2  UNL     1      -4.579  48.380 -25.454  1.00  0.00    -0.075 C 
HETATM   28  C1  UNL     1      -5.101  48.145 -26.672  1.00  0.00     0.015 C 
BRANCH  27  29
HETATM   29  C27 UNL     1      -5.489  48.365 -24.222  1.00  0.00     0.107 C 
HETATM   30  C28 UNL     1      -4.727  47.940 -22.965  1.00  0.00     0.026 C 
BRANCH  29  31
HETATM   31  C29 UNL     1      -6.214  49.696 -24.011  1.00  0.00     0.147 C 
HETATM   32  O4  UNL     1      -5.802  50.697 -23.446  1.00  0.00    -0.650 OA
BRANCH  31  33
HETATM   33  O5  UNL     1      -7.437  49.717 -24.583  1.00  0.00    -0.776 OA
HETATM   34  H42 UNL     1      -7.760  50.625 -24.402  1.00  0.00     0.167 HD
ENDBRANCH  31  33
ENDBRANCH  29  31
ENDBRANCH  27  29
ENDBRANCH  26  27
ENDBRANCH  25  26
ENDBRANCH  23  25
ENDBRANCH   1  23
BRANCH  22  35
HETATM   35  O3  UNL     1       2.119  52.688 -20.920  1.00  0.00    -0.391 OA
HETATM   36  H37 UNL     1       2.275  51.758 -20.685  1.00  0.00     0.210 HD
ENDBRANCH  22  35
TORSDOF 8
ENDMDL
