MODEL 1
REMARK minimizedAffinity -10.1221685
REMARK CNNscore 0.133897051
REMARK CNNaffinity 7.58946419
REMARK  9 active torsions:
REMARK  status: ('A' for Active; 'I' for Inactive)
REMARK    1  A    between atoms: C13_13  and  S1_14 
REMARK    2  A    between atoms: C22_26  and  C23_27 
REMARK    3  A    between atoms: C23_27  and  O4_28 
REMARK    4  A    between atoms: C29_34  and  O5_35 
REMARK    5  A    between atoms: C41_48  and  C42_49 
REMARK    6  A    between atoms: C41_48  and  N1_57 
REMARK    7  A    between atoms: C42_49  and  C43_50 
REMARK    8  A    between atoms: C43_50  and  C44_51 
REMARK    9  A    between atoms: C44_51  and  O7_52 
REMARK       I    between atoms: C49_59  and  N2_60 
REMARK       I    between atoms: C49_59  and  N3_61 
ROOT
HETATM    1  C1  UNL     1      -0.094  52.653 -22.566  1.00  0.00     0.010 C 
HETATM    2  C2  UNL     1      -0.964  51.401 -22.639  1.00  0.00    -0.010 C 
HETATM    3  C3  UNL     1      -2.333  51.807 -23.260  1.00  0.00     0.009 C 
HETATM    4  C4  UNL     1      -3.549  51.067 -22.699  1.00  0.00     0.039 C 
HETATM    5  C5  UNL     1      -3.214  49.638 -22.385  1.00  0.00    -0.049 C 
HETATM    6  C6  UNL     1      -4.146  48.621 -22.597  1.00  0.00     0.044 C 
HETATM    7  C7  UNL     1      -3.837  47.325 -22.200  1.00  0.00     0.072 C 
HETATM    8  C8  UNL     1      -2.534  46.997 -21.838  1.00  0.00     0.037 C 
HETATM    9  C9  UNL     1      -1.610  48.019 -21.597  1.00  0.00     0.011 C 
HETATM   10  C10 UNL     1      -1.975  49.359 -21.762  1.00  0.00    -0.047 C 
HETATM   11  C11 UNL     1      -1.155  50.587 -21.314  1.00  0.00     0.024 C 
HETATM   12  C12 UNL     1       0.133  50.306 -20.496  1.00  0.00     0.033 C 
HETATM   13  C13 UNL     1       0.210  50.772 -19.000  1.00  0.00     0.139 C 
HETATM   14  C14 UNL     1      -0.593  49.931 -17.939  1.00  0.00     0.038 C 
HETATM   15  C15 UNL     1       0.105  49.964 -16.580  1.00  0.00    -0.014 C 
HETATM   16  C16 UNL     1      -0.403  50.660 -15.542  1.00  0.00    -0.050 C 
HETATM   17  C17 UNL     1      -1.646  51.473 -15.760  1.00  0.00     0.042 C 
HETATM   18  C18 UNL     1      -2.642  50.464 -16.298  1.00  0.00     0.001 C 
HETATM   19  C19 UNL     1      -2.806  49.239 -15.314  1.00  0.00     0.037 C 
HETATM   20  C20 UNL     1      -2.350  49.457 -13.842  1.00  0.00     0.123 C 
HETATM   21  C21 UNL     1      -2.985  48.435 -12.860  1.00  0.00     0.039 C 
HETATM   22  C22 UNL     1      -2.368  47.021 -12.652  1.00  0.00     0.023 C 
HETATM   23  C24 UNL     1      -1.320  46.929 -11.506  1.00  0.00     0.101 C 
HETATM   24  C25 UNL     1      -0.053  47.617 -11.783  1.00  0.00    -0.101 C 
HETATM   25  C26 UNL     1       0.876  48.276 -12.168  1.00  0.00    -0.066 C 
HETATM   26  C27 UNL     1       1.805  49.153 -12.820  1.00  0.00     0.029 A 
HETATM   27  C28 UNL     1       3.165  48.999 -12.527  1.00  0.00     0.057 A 
HETATM   28  C29 UNL     1       4.107  49.823 -13.131  1.00  0.00     0.067 A 
HETATM   29  C30 UNL     1       3.717  50.813 -14.022  1.00  0.00     0.037 A 
HETATM   30  C31 UNL     1       2.362  50.977 -14.316  1.00  0.00     0.014 A 
HETATM   31  C32 UNL     1       1.377  50.140 -13.743  1.00  0.00    -0.006 A 
HETATM   32  C33 UNL     1      -0.093  50.417 -14.092  1.00  0.00     0.185 C 
HETATM   33  O6  UNL     1      -0.941  49.325 -13.711  1.00  0.00    -0.371 OA
HETATM   34  C34 UNL     1      -2.176  50.102 -17.769  1.00  0.00     0.032 C 
HETATM   35  C35 UNL     1      -3.043  48.950 -18.292  1.00  0.00    -0.055 C 
HETATM   36  C36 UNL     1      -2.662  47.606 -18.200  1.00  0.00     0.001 C 
HETATM   37  C37 UNL     1      -3.409  46.603 -18.825  1.00  0.00     0.096 A 
HETATM   38  C38 UNL     1      -4.554  46.920 -19.576  1.00  0.00     0.086 A 
HETATM   39  C39 UNL     1      -5.040  48.239 -19.493  1.00  0.00     0.004 C 
HETATM   40  C40 UNL     1      -4.284  49.241 -18.873  1.00  0.00     0.005 C 
HETATM   41  C41 UNL     1      -5.083  45.930 -20.661  1.00  0.00     0.167 C 
HETATM   42  O8  UNL     1      -4.894  46.464 -22.037  1.00  0.00    -0.318 OA
HETATM   43 NA1  UNL     1      -2.841  48.221 -18.077  1.00  0.00    -0.348 Na
ATOM     44 1HA1 UNL     1      -2.160  48.956 -17.885  1.00  0.00     0.104 HD
ATOM     45 2HA1 UNL     1      -2.574  48.833 -17.305  1.00  0.00     0.104 HD
ENDROOT
BRANCH  41  46
HETATM   46  C42 UNL     1      -6.633  45.783 -20.529  1.00  0.00     0.067 C 
BRANCH  46  47
HETATM   47  C43 UNL     1      -7.421  47.085 -20.754  1.00  0.00     0.042 C 
BRANCH  47  48
HETATM   48  C44 UNL     1      -8.565  47.285 -19.754  1.00  0.00     0.058 C 
HETATM   49  C45 UNL     1      -9.932  47.284 -20.447  1.00  0.00     0.038 C 
HETATM   50  C46 UNL     1     -10.870  47.985 -19.468  1.00  0.00     0.003 C 
HETATM   51  C47 UNL     1      -9.987  48.849 -18.570  1.00  0.00     0.003 C 
HETATM   52  C48 UNL     1      -8.550  48.643 -19.051  1.00  0.00     0.038 C 
BRANCH  48  53
HETATM   53  O7  UNL     1      -8.514  46.237 -18.787  1.00  0.00    -0.390 OA
HETATM   54  H46 UNL     1      -9.289  46.303 -18.206  1.00  0.00     0.210 HD
ENDBRANCH  48  53
ENDBRANCH  47  48
ENDBRANCH  46  47
ENDBRANCH  41  46
BRANCH  41  55
HETATM   55  N1  UNL     1      -4.530  44.569 -20.443  1.00  0.00    -0.338 N 
HETATM   56  C49 UNL     1      -4.996  43.807 -19.534  1.00  0.00     0.124 C 
HETATM   57  N2  UNL     1      -4.472  42.574 -19.352  1.00  0.00    -0.279 NA
HETATM   58  N3  UNL     1      -5.982  44.010 -18.630  1.00  0.00    -0.279 NA
HETATM   59  H55 UNL     1      -4.338  42.362 -18.372  1.00  0.00     0.126 HD
HETATM   60  H56 UNL     1      -3.606  42.481 -19.872  1.00  0.00     0.126 HD
HETATM   61  H57 UNL     1      -6.599  43.208 -18.567  1.00  0.00     0.126 HD
HETATM   62  H58 UNL     1      -6.533  44.839 -18.858  1.00  0.00     0.126 HD
ATOM     63  H1  UNL     1      -3.765  44.239 -21.031  1.00  0.00     0.164 HD
ENDBRANCH  41  55
BRANCH  13  64
HETATM   64  S1  UNL     1       0.187  52.566 -18.816  1.00  0.00     0.106 S 
HETATM   65  O1  UNL     1      -1.235  52.899 -18.869  1.00  0.00    -0.595 OA
HETATM   66  O2  UNL     1       0.920  53.085 -19.967  1.00  0.00    -0.595 OA
HETATM   67  O3  UNL     1       0.821  52.811 -17.523  1.00  0.00    -0.595 OA
ENDBRANCH  13  64
BRANCH  22  68
HETATM   68  C23 UNL     1      -1.900  46.334 -13.938  1.00  0.00     0.169 C 
BRANCH  68  69
HETATM   69  O4  UNL     1      -0.548  46.699 -14.221  1.00  0.00    -0.400 OA
HETATM   70  H29 UNL     1       0.010  46.225 -13.582  1.00  0.00     0.209 HD
ENDBRANCH  68  69
ENDBRANCH  22  68
BRANCH  28  71
HETATM   71  O5  UNL     1       5.422  49.631 -12.819  1.00  0.00    -0.361 OA
HETATM   72  H33 UNL     1       5.942  50.275 -13.329  1.00  0.00     0.217 HD
ENDBRANCH  28  71
TORSDOF 9
ENDMDL
