MODEL 1
REMARK minimizedAffinity -6.79211187
REMARK CNNscore 0.323091567
REMARK CNNaffinity 5.78549623
REMARK  11 active torsions:
REMARK  status: ('A' for Active; 'I' for Inactive)
REMARK    1  A    between atoms: C2_2  and  C3_3 
REMARK    2  A    between atoms: C2_2  and  C4_5 
REMARK    3  A    between atoms: C3_3  and  O1_4 
REMARK    4  A    between atoms: C13_14  and  C14_15 
REMARK    5  A    between atoms: C14_15  and  C16_17 
REMARK    6  A    between atoms: C16_17  and  C17_18 
REMARK    7  A    between atoms: C17_18  and  C18_20 
REMARK    8  A    between atoms: C27_29  and  C28_30 
REMARK    9  A    between atoms: C28_30  and  C29_31 
REMARK   10  A    between atoms: C29_31  and  C30_32 
REMARK   11  A    between atoms: C30_32  and  O4_34 
ROOT
HETATM    1  C4  UNL     1     -16.006  45.001 -26.902  1.00  0.00     0.025 C 
HETATM    2  C5  UNL     1     -15.437  44.714 -28.302  1.00  0.00     0.010 C 
HETATM    3  C6  UNL     1     -14.424  45.782 -28.699  1.00  0.00     0.007 C 
HETATM    4  C7  UNL     1     -13.157  45.653 -27.844  1.00  0.00     0.004 C 
HETATM    5  C8  UNL     1     -13.476  45.713 -26.327  1.00  0.00    -0.027 A 
HETATM    6  C9  UNL     1     -12.668  46.708 -25.476  1.00  0.00     0.011 C 
HETATM    7  C10 UNL     1     -11.221  47.026 -25.902  1.00  0.00     0.011 C 
HETATM    8  C11 UNL     1     -10.821  46.446 -27.261  1.00  0.00    -0.032 C 
HETATM    9  C12 UNL     1     -10.399  44.968 -27.028  1.00  0.00     0.016 C 
HETATM   10  C13 UNL     1      -9.682  47.218 -28.000  1.00  0.00    -0.002 C 
HETATM   11  C22 UNL     1      -9.918  46.876 -29.492  1.00  0.00     0.006 C 
HETATM   12  C23 UNL     1     -11.346  46.307 -29.601  1.00  0.00     0.011 C 
HETATM   13  C24 UNL     1     -12.022  46.627 -28.251  1.00  0.00    -0.032 C 
HETATM   14  C25 UNL     1     -12.571  48.083 -28.362  1.00  0.00     0.016 C 
HETATM   15  C26 UNL     1     -13.752  44.364 -25.688  1.00  0.00     0.022 A 
HETATM   16  C27 UNL     1     -14.912  45.316 -25.849  1.00  0.00    -0.024 A 
ENDROOT
BRANCH  10  17
HETATM   17  C14 UNL     1      -8.225  47.070 -27.476  1.00  0.00    -0.007 C 
HETATM   18  C15 UNL     1      -7.544  45.886 -28.188  1.00  0.00     0.011 C 
BRANCH  17  19
HETATM   19  C16 UNL     1      -8.080  46.863 -25.954  1.00  0.00     0.087 C 
BRANCH  19  20
HETATM   20  C17 UNL     1      -7.177  47.906 -25.308  1.00  0.00     0.149 C 
HETATM   21  O2  UNL     1      -7.533  48.547 -24.323  1.00  0.00    -0.293 OA
BRANCH  20  22
HETATM   22  C18 UNL     1      -5.822  48.083 -25.923  1.00  0.00     0.052 C 
HETATM   23  C19 UNL     1      -4.678  48.333 -25.256  1.00  0.00    -0.084 C 
HETATM   24  C20 UNL     1      -4.567  48.434 -23.758  1.00  0.00     0.043 C 
HETATM   25  C21 UNL     1      -3.385  48.531 -26.002  1.00  0.00     0.043 C 
ENDBRANCH  20  22
ENDBRANCH  19  20
ENDBRANCH  17  19
ENDBRANCH  10  17
BRANCH  16  26
HETATM   26  C28 UNL     1     -15.474  45.900 -24.543  1.00  0.00     0.021 C 
BRANCH  26  27
HETATM   27  C29 UNL     1     -16.347  47.137 -24.752  1.00  0.00     0.111 C 
BRANCH  27  28
HETATM   28  C30 UNL     1     -17.788  46.850 -24.433  1.00  0.00     0.139 C 
HETATM   29  O3  UNL     1     -18.774  47.429 -24.856  1.00  0.00    -0.650 OA
BRANCH  28  30
HETATM   30  O4  UNL     1     -17.913  45.836 -23.554  1.00  0.00    -0.776 OA
HETATM   31  H46 UNL     1     -18.882  45.757 -23.417  1.00  0.00     0.167 HD
ENDBRANCH  28  30
ENDBRANCH  27  28
ENDBRANCH  26  27
ENDBRANCH  16  26
BRANCH   1  32
HETATM   32  C2  UNL     1     -17.044  43.931 -26.537  1.00  0.00    -0.061 C 
HETATM   33  C1  UNL     1     -16.781  42.884 -25.732  1.00  0.00     0.017 C 
BRANCH  32  34
HETATM   34  C3  UNL     1     -18.406  44.149 -27.166  1.00  0.00     0.198 C 
BRANCH  34  35
HETATM   35  O1  UNL     1     -18.740  45.526 -27.261  1.00  0.00    -0.397 OA
HETATM   36  H5  UNL     1     -18.045  45.939 -27.803  1.00  0.00     0.209 HD
ENDBRANCH  34  35
ENDBRANCH  32  34
ENDBRANCH   1  32
TORSDOF 11
ENDMDL
