MODEL 1
REMARK minimizedAffinity -7.59157848
REMARK CNNscore 0.780465901
REMARK CNNaffinity 7.04250669
REMARK  10 active torsions:
REMARK  status: ('A' for Active; 'I' for Inactive)
REMARK    1  A    between atoms: C2_2  and  C3_3 
REMARK    2  A    between atoms: C2_2  and  C9_12 
REMARK    3  A    between atoms: C3_3  and  C4_4 
REMARK    4  A    between atoms: C4_4  and  C5_5 
REMARK    5  A    between atoms: C5_5  and  O1_6 
REMARK    6  A    between atoms: C5_5  and  C6_7 
REMARK    7  A    between atoms: C6_7  and  O2_9 
REMARK    8  A    between atoms: C6_7  and  C8_10 
REMARK    9  A    between atoms: C8_10  and  O3_11 
REMARK   10  A    between atoms: C16_19  and  O4_20 
ROOT
HETATM    1  C9  UNL     1      -2.086  51.875 -10.181  1.00  0.00    -0.002 C 
HETATM    2  C10 UNL     1      -1.352  50.525 -10.416  1.00  0.00     0.007 C 
HETATM    3  C11 UNL     1       0.137  50.748 -10.083  1.00  0.00     0.015 C 
HETATM    4  C12 UNL     1       0.186  52.098  -9.336  1.00  0.00    -0.005 C 
HETATM    5  C13 UNL     1      -0.172  51.803  -7.847  1.00  0.00     0.021 C 
HETATM    6  C14 UNL     1       1.477  52.912  -9.275  1.00  0.00     0.002 C 
HETATM    7  C15 UNL     1       1.454  54.270  -9.182  1.00  0.00    -0.032 C 
HETATM    8  C16 UNL     1       0.112  55.020  -9.169  1.00  0.00     0.149 C 
HETATM    9  C17 UNL     1      -1.178  54.203  -9.402  1.00  0.00     0.047 C 
HETATM   10  C18 UNL     1      -0.908  52.896 -10.151  1.00  0.00    -0.026 C 
HETATM   11  C19 UNL     1      -0.464  53.229 -11.608  1.00  0.00     0.016 C 
HETATM   12  C20 UNL     1       2.759  55.129  -9.201  1.00  0.00    -0.012 C 
HETATM   13  C21 UNL     1       2.986  55.491 -10.689  1.00  0.00     0.021 C 
HETATM   14  C22 UNL     1       2.634  56.437  -8.373  1.00  0.00     0.021 C 
HETATM   15  C23 UNL     1       3.927  57.230  -8.268  1.00  0.00     0.080 C 
HETATM   16  C24 UNL     1       5.009  56.386  -7.647  1.00  0.00     0.135 C 
HETATM   17  O5  UNL     1       5.697  56.847  -6.735  1.00  0.00    -0.297 OA
HETATM   18  C25 UNL     1       5.275  55.005  -8.267  1.00  0.00     0.018 C 
HETATM   19  C26 UNL     1       6.086  54.176  -7.237  1.00  0.00     0.023 C 
HETATM   20  C27 UNL     1       6.183  55.204  -9.490  1.00  0.00     0.023 C 
HETATM   21  C28 UNL     1       3.911  54.283  -8.555  1.00  0.00     0.020 C 
HETATM   22  C29 UNL     1       4.071  52.956  -9.301  1.00  0.00     0.090 C 
HETATM   23  C30 UNL     1       2.781  52.173  -9.299  1.00  0.00     0.157 C 
HETATM   24  O6  UNL     1       2.812  50.943  -9.336  1.00  0.00    -0.293 OA
ENDROOT
BRANCH   1  25
HETATM   25  C2  UNL     1      -3.267  52.075 -11.170  1.00  0.00    -0.014 C 
HETATM   26  C1  UNL     1      -4.006  53.407 -10.998  1.00  0.00     0.010 C 
BRANCH  25  27
HETATM   27  C3  UNL     1      -4.269  50.885 -11.170  1.00  0.00     0.007 C 
BRANCH  27  28
HETATM   28  C4  UNL     1      -5.079  50.580  -9.893  1.00  0.00     0.035 C 
BRANCH  28  29
HETATM   29  C5  UNL     1      -5.690  49.179  -9.799  1.00  0.00     0.154 C 
BRANCH  29  30
HETATM   30  O1  UNL     1      -5.255  48.533  -8.592  1.00  0.00    -0.392 OA
HETATM   31  H10 UNL     1      -5.467  49.125  -7.850  1.00  0.00     0.210 HD
ENDBRANCH  29  30
BRANCH  29  32
HETATM   32  C6  UNL     1      -7.242  49.072  -9.910  1.00  0.00     0.101 C 
HETATM   33  C7  UNL     1      -7.821  48.328  -8.701  1.00  0.00     0.051 C 
BRANCH  32  34
HETATM   34  O2  UNL     1      -7.782  50.414  -9.869  1.00  0.00    -0.385 OA
HETATM   35  H14 UNL     1      -7.014  51.027  -9.877  1.00  0.00     0.210 HD
ENDBRANCH  32  34
BRANCH  32  36
HETATM   36  C8  UNL     1      -7.756  48.453 -11.224  1.00  0.00     0.204 C 
BRANCH  36  37
HETATM   37  O3  UNL     1      -8.919  49.094 -11.720  1.00  0.00    -0.398 OA
HETATM   38  H17 UNL     1      -9.140  48.668 -12.570  1.00  0.00     0.209 HD
ENDBRANCH  36  37
ENDBRANCH  32  36
ENDBRANCH  29  32
ENDBRANCH  28  29
ENDBRANCH  27  28
ENDBRANCH  25  27
ENDBRANCH   1  25
BRANCH   8  39
HETATM   39  O4  UNL     1      -0.046  55.684  -7.921  1.00  0.00    -0.391 OA
HETATM   40  H27 UNL     1       0.019  55.009  -7.222  1.00  0.00     0.210 HD
ENDBRANCH   8  39
TORSDOF 10
ENDMDL
