MODEL 1
REMARK minimizedAffinity -8.29492283
REMARK CNNscore 0.607446909
REMARK CNNaffinity 6.80053186
REMARK  8 active torsions:
REMARK  status: ('A' for Active; 'I' for Inactive)
REMARK    1  A    between atoms: C2_2  and  C3_3 
REMARK    2  A    between atoms: C2_2  and  C29_30 
REMARK    3  A    between atoms: C3_3  and  C4_4 
REMARK    4  A    between atoms: C4_4  and  C5_5 
REMARK    5  A    between atoms: C5_5  and  C7_7 
REMARK    6  A    between atoms: C29_30  and  C31_32 
REMARK    7  A    between atoms: C31_32  and  O2_33 
REMARK    8  A    between atoms: O2_33  and  C32_34 
ROOT
HETATM    1  C7  UNL     1      -3.101   9.965  17.013  1.00  0.00    -0.002 C 
HETATM    2  C8  UNL     1      -4.411  10.308  16.234  1.00  0.00     0.006 C 
HETATM    3  C9  UNL     1      -4.371   9.546  14.889  1.00  0.00     0.011 C 
HETATM    4  C10 UNL     1      -3.217   8.553  15.060  1.00  0.00    -0.032 C 
HETATM    5  C11 UNL     1      -3.818   7.344  15.878  1.00  0.00     0.016 C 
HETATM    6  C12 UNL     1      -2.619   7.900  13.787  1.00  0.00     0.004 C 
HETATM    7  C13 UNL     1      -2.241   8.818  12.576  1.00  0.00     0.007 C 
HETATM    8  C14 UNL     1      -0.817   8.571  11.976  1.00  0.00     0.007 C 
HETATM    9  C15 UNL     1      -0.563   7.071  11.769  1.00  0.00     0.010 C 
HETATM   10  C16 UNL     1       0.771   6.481  11.310  1.00  0.00     0.018 C 
HETATM   11  C17 UNL     1       1.899   6.737  12.316  1.00  0.00     0.023 C 
HETATM   12  C18 UNL     1       1.178   7.037   9.937  1.00  0.00     0.023 C 
HETATM   13  C19 UNL     1       0.537   4.951  11.162  1.00  0.00     0.135 C 
HETATM   14  O1  UNL     1       1.487   4.179  11.000  1.00  0.00    -0.297 OA
HETATM   15  C20 UNL     1      -0.911   4.415  11.104  1.00  0.00     0.080 C 
HETATM   16  C21 UNL     1      -1.907   5.083  12.088  1.00  0.00     0.018 C 
HETATM   17  C22 UNL     1      -1.168   6.179  12.835  1.00  0.00    -0.026 A 
HETATM   18  C23 UNL     1      -1.014   5.653  14.226  1.00  0.00     0.021 A 
HETATM   19  C24 UNL     1      -1.389   7.080  14.148  1.00  0.00    -0.027 A 
HETATM   20  C25 UNL     1      -0.364   7.843  15.025  1.00  0.00     0.011 C 
HETATM   21  C26 UNL     1      -1.009   8.497  16.271  1.00  0.00     0.011 C 
HETATM   22  C27 UNL     1      -2.175   9.419  15.876  1.00  0.00    -0.032 C 
HETATM   23  C28 UNL     1      -1.572  10.646  15.133  1.00  0.00     0.016 C 
ENDROOT
BRANCH   1  24
HETATM   24  C5  UNL     1      -2.637  11.139  17.922  1.00  0.00    -0.014 C 
HETATM   25  C6  UNL     1      -3.352  12.453  17.588  1.00  0.00     0.010 C 
BRANCH  24  26
HETATM   26  C4  UNL     1      -1.099  11.356  17.890  1.00  0.00     0.009 C 
BRANCH  26  27
HETATM   27  C3  UNL     1      -0.359  10.942  19.170  1.00  0.00     0.034 C 
BRANCH  27  28
HETATM   28  C2  UNL     1       1.155  10.961  19.009  1.00  0.00    -0.083 C 
HETATM   29  C1  UNL     1       1.710  10.336  17.953  1.00  0.00     0.015 C 
BRANCH  28  30
HETATM   30  C29 UNL     1       1.957  11.695  20.093  1.00  0.00     0.034 C 
HETATM   31  C30 UNL     1       1.301  13.045  20.412  1.00  0.00     0.017 C 
BRANCH  30  32
HETATM   32  C31 UNL     1       2.171  10.927  21.416  1.00  0.00     0.187 C 
BRANCH  32  33
HETATM   33  O2  UNL     1       2.378   9.531  21.141  1.00  0.00    -0.321 OA
BRANCH  33  34
HETATM   34  C32 UNL     1       2.348   8.733  22.242  1.00  0.00     0.254 C 
HETATM   35  C33 UNL     1       3.169   9.338  23.339  1.00  0.00     0.126 C 
HETATM   36  O3  UNL     1       1.743   7.673  22.334  1.00  0.00    -0.266 OA
ENDBRANCH  33  34
ENDBRANCH  32  33
ENDBRANCH  30  32
ENDBRANCH  28  30
ENDBRANCH  27  28
ENDBRANCH  26  27
ENDBRANCH  24  26
ENDBRANCH   1  24
TORSDOF 8
ENDMDL
