MODEL 1
REMARK minimizedAffinity -10.0502443
REMARK  6 active torsions:
REMARK  status: ('A' for Active; 'I' for Inactive)
REMARK    1  A    between atoms: O1_1  and  C1_2 
REMARK    2  A    between atoms: C1_2  and  C2_3 
REMARK    3  A    between atoms: C3_9  and  C4_10 
REMARK    4  A    between atoms: C8_14  and  C9_15 
REMARK    5  A    between atoms: C13_19  and  C14_20 
REMARK    6  A    between atoms: C14_20  and  N4_21 
ROOT
HETATM    1  C4  UNL     1       0.009  52.798 -24.960  1.00  0.00    -0.004 A 
HETATM    2  C5  UNL     1      -0.503  51.819 -24.102  1.00  0.00     0.015 A 
HETATM    3  C6  UNL     1      -0.273  51.867 -22.716  1.00  0.00     0.017 A 
HETATM    4  C7  UNL     1       0.494  52.918 -22.178  1.00  0.00     0.022 A 
HETATM    5  C8  UNL     1       0.951  53.334 -20.898  1.00  0.00     0.087 A 
HETATM    6  N6  UNL     1       1.686  54.453 -20.959  1.00  0.00    -0.297 N 
ATOM      7  H6  UNL     1       2.130  54.959 -20.193  1.00  0.00     0.187 HD
HETATM    8  N7  UNL     1       1.699  54.751 -22.268  1.00  0.00    -0.299 N 
HETATM    9  C23 UNL     1       1.003  53.873 -23.052  1.00  0.00     0.061 A 
HETATM   10  C24 UNL     1       0.787  53.844 -24.436  1.00  0.00     0.045 A 
HETATM   11  H24 UNL     1       2.206  55.574 -22.569  1.00  0.00     0.187 HD
ENDROOT
BRANCH   5  12
HETATM   12  C9  UNL     1       0.711  52.675 -19.510  1.00  0.00     0.062 A 
HETATM   13  C10 UNL     1      -0.171  51.689 -19.137  1.00  0.00     0.045 A 
HETATM   14  C11 UNL     1       0.015  51.450 -17.744  1.00  0.00    -0.007 A 
HETATM   15  C12 UNL     1      -0.580  50.578 -16.812  1.00  0.00     0.022 A 
HETATM   16  C22 UNL     1       1.020  52.311 -17.306  1.00  0.00     0.043 A 
HETATM   17  C13 UNL     1      -0.165  50.590 -15.467  1.00  0.00    -0.029 A 
HETATM   18  C20 UNL     1       0.855  51.468 -15.075  1.00  0.00     0.011 A 
HETATM   19  C21 UNL     1       1.464  52.344 -15.981  1.00  0.00     0.031 A 
HETATM   20  N5  UNL     1       1.423  53.042 -18.398  1.00  0.00    -0.354 N 
HETATM   21  H23 UNL     1       2.140  53.754 -18.409  1.00  0.00     0.166 HD
BRANCH  17  22
HETATM   22  C14 UNL     1      -0.803  49.650 -14.463  1.00  0.00     0.311 C 
BRANCH  22  23
HETATM   23  N4  UNL     1      -1.743  50.241 -13.504  1.00  0.00     0.092 N 
HETATM   24  C15 UNL     1      -2.492  49.261 -12.714  1.00  0.00     0.272 C 
HETATM   25  C16 UNL     1      -3.727  49.851 -12.015  1.00  0.00     0.030 C 
HETATM   26  C17 UNL     1      -3.519  51.315 -11.656  1.00  0.00     0.003 C 
HETATM   27  C18 UNL     1      -3.165  52.141 -12.895  1.00  0.00     0.030 C 
HETATM   28  C19 UNL     1      -2.584  51.302 -14.041  1.00  0.00     0.272 C 
ENDBRANCH  22  23
ENDBRANCH  17  22
ENDBRANCH   5  12
BRANCH   1  29
HETATM   29  C3  UNL     1      -0.227  52.739 -26.403  1.00  0.00     0.086 A 
HETATM   30  C2  UNL     1       0.559  52.173 -27.453  1.00  0.00     0.079 A 
HETATM   31  N1  UNL     1      -0.051  52.382 -28.632  1.00  0.00    -0.286 N 
HETATM   32  N2  UNL     1      -1.166  53.015 -28.249  1.00  0.00    -0.242 N 
ATOM     33  H1  UNL     1       0.256  52.127 -29.571  1.00  0.00     0.188 HD
HETATM   34  N3  UNL     1      -1.342  53.262 -26.947  1.00  0.00    -0.284 N 
HETATM   35  H4  UNL     1      -1.863  53.303 -28.931  1.00  0.00     0.208 HD
ATOM     36  H3  UNL     1      -2.123  53.728 -26.484  1.00  0.00     0.188 HD
BRANCH  30  37
HETATM   37  C1  UNL     1       1.856  51.445 -27.397  1.00  0.00     0.225 C 
BRANCH  37  38
HETATM   38  O1  UNL     1       2.896  52.220 -26.805  1.00  0.00    -0.395 OA
HETATM   39  H1  UNL     1       3.644  51.618 -26.659  1.00  0.00     0.209 HD
ENDBRANCH  37  38
ENDBRANCH  30  37
ENDBRANCH   1  29
TORSDOF 6
ENDMDL
