MODEL 1
REMARK minimizedAffinity -9.43310261
REMARK  6 active torsions:
REMARK  status: ('A' for Active; 'I' for Inactive)
REMARK    1  A    between atoms: C2_2  and  C4_4 
REMARK    2  A    between atoms: C11_11  and  C12_12 
REMARK    3  A    between atoms: C12_12  and  O2_14 
REMARK    4  A    between atoms: C21_23  and  O3_24 
REMARK    5  A    between atoms: C22_25  and  C24_27 
REMARK    6  A    between atoms: C24_27  and  O4_28 
ROOT
HETATM    1  C4  UNL     1      -5.975  47.607 -27.125  1.00  0.00     0.018 C 
HETATM    2  C5  UNL     1      -7.367  47.513 -27.812  1.00  0.00     0.010 C 
HETATM    3  C6  UNL     1      -8.419  47.825 -26.735  1.00  0.00     0.010 C 
HETATM    4  C7  UNL     1      -7.690  47.577 -25.409  1.00  0.00    -0.039 C 
HETATM    5  C8  UNL     1      -7.689  46.049 -25.137  1.00  0.00     0.015 C 
HETATM    6  C9  UNL     1      -8.287  48.314 -24.205  1.00  0.00     0.011 C 
HETATM    7  C10 UNL     1      -7.344  48.260 -22.984  1.00  0.00     0.022 C 
HETATM    8  C11 UNL     1      -5.883  48.776 -23.266  1.00  0.00     0.057 C 
HETATM    9  C13 UNL     1      -5.333  48.016 -24.546  1.00  0.00     0.011 C 
HETATM   10  C14 UNL     1      -3.872  48.348 -24.869  1.00  0.00     0.007 C 
HETATM   11  C15 UNL     1      -2.944  48.178 -23.667  1.00  0.00     0.006 C 
HETATM   12  C16 UNL     1      -3.420  48.972 -22.432  1.00  0.00     0.003 C 
HETATM   13  C17 UNL     1      -2.340  49.084 -21.260  1.00  0.00    -0.035 C 
HETATM   14  C18 UNL     1      -1.889  47.693 -20.753  1.00  0.00     0.016 C 
HETATM   15  C19 UNL     1      -1.074  49.814 -21.810  1.00  0.00     0.012 C 
HETATM   16  C20 UNL     1      -0.082  50.251 -20.736  1.00  0.00     0.033 C 
HETATM   17  C21 UNL     1      -0.724  51.114 -19.659  1.00  0.00     0.128 C 
HETATM   18  C22 UNL     1      -1.982  50.472 -18.996  1.00  0.00     0.007 C 
HETATM   19  C23 UNL     1      -1.578  49.346 -18.019  1.00  0.00     0.020 C 
HETATM   20  C25 UNL     1      -2.961  49.997 -20.135  1.00  0.00     0.007 C 
HETATM   21  C26 UNL     1      -4.305  49.428 -19.640  1.00  0.00     0.007 C 
HETATM   22  C27 UNL     1      -5.328  49.377 -20.778  1.00  0.00     0.011 C 
HETATM   23  C28 UNL     1      -4.884  48.540 -22.012  1.00  0.00    -0.022 C 
HETATM   24  C29 UNL     1      -4.940  47.046 -21.579  1.00  0.00     0.017 C 
HETATM   25  C30 UNL     1      -6.308  48.198 -25.735  1.00  0.00     0.007 C 
ENDROOT
BRANCH   8  26
HETATM   26  C12 UNL     1      -5.977  50.300 -23.571  1.00  0.00     0.149 C 
HETATM   27  O1  UNL     1      -5.202  50.976 -24.226  1.00  0.00    -0.649 OA
BRANCH  26  28
HETATM   28  O2  UNL     1      -7.032  50.920 -23.006  1.00  0.00    -0.776 OA
HETATM   29  H18 UNL     1      -6.933  51.851 -23.295  1.00  0.00     0.167 HD
ENDBRANCH  26  28
ENDBRANCH   8  26
BRANCH   1  30
HETATM   30  C2  UNL     1      -4.988  48.319 -28.037  1.00  0.00    -0.089 C 
HETATM   31  C1  UNL     1      -3.928  49.031 -27.623  1.00  0.00     0.014 C 
HETATM   32  C3  UNL     1      -5.283  48.191 -29.511  1.00  0.00     0.043 C 
ENDBRANCH   1  30
BRANCH  18  33
HETATM   33  C24 UNL     1      -2.687  51.576 -18.140  1.00  0.00     0.176 C 
BRANCH  33  34
HETATM   34  O4  UNL     1      -2.904  51.141 -16.798  1.00  0.00    -0.400 OA
HETATM   35  H39 UNL     1      -3.403  51.849 -16.350  1.00  0.00     0.209 HD
ENDBRANCH  33  34
ENDBRANCH  18  33
BRANCH  17  36
HETATM   36  O3  UNL     1       0.287  51.419 -18.699  1.00  0.00    -0.395 OA
HETATM   37  H33 UNL     1      -0.177  51.858 -17.953  1.00  0.00     0.210 HD
ENDBRANCH  17  36
TORSDOF 6
ENDMDL
