MODEL 1
REMARK minimizedAffinity -9.634758
REMARK  5 active torsions:
REMARK  status: ('A' for Active; 'I' for Inactive)
REMARK    1  A    between atoms: C3_3  and  C4_4 
REMARK    2  A    between atoms: C4_4  and  O2_6 
REMARK    3  A    between atoms: O2_6  and  C5_7 
REMARK    4  A    between atoms: C5_7  and  C6_8 
REMARK    5  A    between atoms: C12_14  and  C13_15 
ROOT
HETATM    1  C1  UNL     1      -5.535   6.609  15.242  1.00  0.00     0.069 C 
HETATM    2  C2  UNL     1      -4.166   7.237  15.191  1.00  0.00     0.018 C 
HETATM    3  C3  UNL     1      -3.093   6.696  14.573  1.00  0.00     0.052 C 
HETATM    4  C12 UNL     1      -1.732   7.380  14.552  1.00  0.00     0.104 C 
HETATM    5  C22 UNL     1      -1.692   8.586  15.493  1.00  0.00     0.024 C 
HETATM    6  C23 UNL     1      -2.807   9.061  16.087  1.00  0.00     0.020 C 
HETATM    7  C24 UNL     1      -2.794  10.232  17.037  1.00  0.00     0.058 C 
HETATM    8  C25 UNL     1      -1.424  10.444  17.669  1.00  0.00     0.014 C 
HETATM    9  C26 UNL     1      -0.335  10.473  16.611  1.00  0.00     0.084 C 
HETATM   10  C27 UNL     1      -0.374   9.232  15.748  1.00  0.00     0.158 C 
HETATM   11  O5  UNL     1       0.647   8.799  15.217  1.00  0.00    -0.293 OA
HETATM   12  N1  UNL     1      -4.026   8.442  15.866  1.00  0.00    -0.362 N 
HETATM   13  H22 UNL     1      -4.825   8.762  16.409  1.00  0.00     0.165 HD
ENDROOT
BRANCH   4  14
HETATM   14  C13 UNL     1      -1.360   7.758  13.125  1.00  0.00     0.029 A 
HETATM   15  C14 UNL     1      -1.881   8.775  12.421  1.00  0.00     0.154 A 
HETATM   16  O3  UNL     1      -1.541   9.155  11.146  1.00  0.00    -0.321 OA
HETATM   17  C15 UNL     1      -0.554   8.446  10.513  1.00  0.00     0.089 A 
HETATM   18  C16 UNL     1      -0.195   8.858   9.229  1.00  0.00     0.040 A 
HETATM   19  C20 UNL     1       0.083   7.354  11.098  1.00  0.00     0.050 A 
HETATM   20  C17 UNL     1       0.803   8.170   8.535  1.00  0.00     0.026 A 
HETATM   21  C18 UNL     1       1.433   7.073   9.126  1.00  0.00     0.035 A 
HETATM   22 CL1  UNL     1       2.661   6.232   8.264  1.00  0.00    -0.084 Cl
HETATM   23  C19 UNL     1       1.078   6.658  10.407  1.00  0.00     0.042 A 
HETATM   24  C21 UNL     1      -0.312   6.945  12.457  1.00  0.00     0.194 A 
HETATM   25  O4  UNL     1       0.198   5.968  12.991  1.00  0.00    -0.287 OA
ENDBRANCH   4  14
BRANCH   3  26
HETATM   26  C4  UNL     1      -3.178   5.390  13.896  1.00  0.00     0.292 C 
HETATM   27  O1  UNL     1      -2.603   4.382  14.274  1.00  0.00    -0.259 OA
BRANCH  26  28
HETATM   28  O2  UNL     1      -3.973   5.522  12.812  1.00  0.00    -0.313 OA
BRANCH  28  29
HETATM   29  C5  UNL     1      -3.884   4.429  11.897  1.00  0.00     0.217 C 
BRANCH  29  30
HETATM   30  C6  UNL     1      -5.109   3.572  12.082  1.00  0.00    -0.034 A 
HETATM   31  C7  UNL     1      -5.186   2.316  11.461  1.00  0.00     0.009 A 
HETATM   32  C8  UNL     1      -6.310   1.508  11.631  1.00  0.00     0.001 A 
HETATM   33  C9  UNL     1      -7.368   1.945  12.425  1.00  0.00     0.000 A 
HETATM   34  C10 UNL     1      -7.302   3.188  13.051  1.00  0.00     0.001 A 
HETATM   35  C11 UNL     1      -6.176   3.997  12.884  1.00  0.00     0.009 A 
ENDBRANCH  29  30
ENDBRANCH  28  29
ENDBRANCH  26  28
ENDBRANCH   3  26
TORSDOF 5
ENDMDL
