MODEL 1
REMARK minimizedAffinity -6.41980791
REMARK  10 active torsions:
REMARK  status: ('A' for Active; 'I' for Inactive)
REMARK    1  A    between atoms: C2_2  and  C3_3 
REMARK    2  A    between atoms: C3_3  and  C4_4 
REMARK    3  A    between atoms: C4_4  and  C5_5 
REMARK    4  A    between atoms: C5_5  and  N1_6 
REMARK    5  A    between atoms: N1_6  and  C6_7 
REMARK    6  A    between atoms: C6_7  and  C7_8 
REMARK    7  A    between atoms: C7_8  and  O1_9 
REMARK    8  A    between atoms: O1_9  and  C8_10 
REMARK    9  A    between atoms: C8_10  and  C9_12 
REMARK   10  A    between atoms: C12_15  and  N2_16 
ROOT
HETATM    1  C8  UNL     1      -2.346  51.995 -27.090  1.00  0.00     0.293 C 
HETATM    2  O2  UNL     1      -3.036  51.408 -27.907  1.00  0.00    -0.259 OA
ENDROOT
BRANCH   1   3
HETATM    3  O1  UNL     1      -2.798  52.839 -26.129  1.00  0.00    -0.316 OA
BRANCH   3   4
HETATM    4  C7  UNL     1      -3.748  52.274 -25.207  1.00  0.00     0.209 C 
BRANCH   4   5
HETATM    5  C6  UNL     1      -3.166  52.216 -23.787  1.00  0.00     0.296 C 
BRANCH   5   6
HETATM    6  N1  UNL     1      -3.350  50.923 -23.110  1.00  0.00     0.085 N 
HETATM    7  H12 UNL     1      -3.276  51.069 -22.102  1.00  0.00     0.315 HD
BRANCH   6   8
HETATM    8  C5  UNL     1      -2.375  49.919 -23.532  1.00  0.00     0.269 C 
BRANCH   8   9
HETATM    9  C4  UNL     1      -3.073  48.693 -24.131  1.00  0.00     0.030 C 
BRANCH   9  10
HETATM   10  C3  UNL     1      -2.985  48.635 -25.658  1.00  0.00     0.001 C 
BRANCH  10  11
HETATM   11  C2  UNL     1      -4.368  48.469 -26.288  1.00  0.00    -0.005 C 
HETATM   12  C1  UNL     1      -4.273  48.250 -27.790  1.00  0.00     0.005 C 
ENDBRANCH  10  11
ENDBRANCH   9  10
ENDBRANCH   8   9
ENDBRANCH   6   8
ENDBRANCH   5   6
ENDBRANCH   4   5
ENDBRANCH   3   4
ENDBRANCH   1   3
BRANCH   1  13
HETATM   13  C9  UNL     1      -0.863  51.881 -27.029  1.00  0.00     0.039 A 
HETATM   14  C10 UNL     1      -0.143  51.969 -28.226  1.00  0.00     0.019 A 
HETATM   15  C11 UNL     1       1.253  51.872 -28.218  1.00  0.00     0.024 A 
HETATM   16  C12 UNL     1       1.946  51.641 -27.028  1.00  0.00     0.005 A 
HETATM   17  C13 UNL     1       1.228  51.612 -25.830  1.00  0.00     0.024 A 
HETATM   18  C14 UNL     1      -0.168  51.709 -25.826  1.00  0.00     0.019 A 
BRANCH  16  19
HETATM   19  N2  UNL     1       3.343  51.664 -27.010  1.00  0.00    -0.303 NA
HETATM   20  H19 UNL     1       3.773  51.384 -27.888  1.00  0.00     0.124 HD
HETATM   21  H20 UNL     1       3.757  51.193 -26.212  1.00  0.00     0.124 HD
ENDBRANCH  16  19
ENDBRANCH   1  13
TORSDOF 10
ENDMDL
