MODEL 1
REMARK minimizedAffinity -5.0345192
REMARK  12 active torsions:
REMARK  status: ('A' for Active; 'I' for Inactive)
REMARK    1  A    between atoms: C2_2  and  C3_3 
REMARK    2  A    between atoms: C3_3  and  C4_4 
REMARK    3  A    between atoms: C3_3  and  C13_17 
REMARK    4  A    between atoms: C4_4  and  O2_6 
REMARK    5  A    between atoms: O2_6  and  C5_7 
REMARK    6  A    between atoms: C5_7  and  C6_8 
REMARK    7  A    between atoms: C6_8  and  O3_9 
REMARK    8  A    between atoms: O3_9  and  C7_10 
REMARK    9  A    between atoms: C7_10  and  C8_11 
REMARK   10  A    between atoms: C8_11  and  N1_12 
REMARK   11  A    between atoms: N1_12  and  C9_13 
REMARK   12  A    between atoms: N1_12  and  C11_15 
ROOT
HETATM    1  C4  UNL     1      11.227  33.590  20.840  1.00  0.00     0.267 C 
HETATM    2  O1  UNL     1      11.459  32.661  21.604  1.00  0.00    -0.265 OA
ENDROOT
BRANCH   1   3
HETATM    3  C3  UNL     1      10.538  34.896  21.228  1.00  0.00     0.118 C 
BRANCH   3   4
HETATM    4  C2  UNL     1      10.431  35.076  22.757  1.00  0.00     0.015 C 
HETATM    5  C1  UNL     1       9.422  34.179  23.465  1.00  0.00     0.006 C 
ENDBRANCH   3   4
BRANCH   3   6
HETATM    6  C13 UNL     1       9.222  35.137  20.504  1.00  0.00    -0.044 A 
HETATM    7  C14 UNL     1       9.110  36.214  19.611  1.00  0.00     0.008 A 
HETATM    8  C15 UNL     1       7.909  36.466  18.945  1.00  0.00     0.001 A 
HETATM    9  C16 UNL     1       6.804  35.649  19.166  1.00  0.00     0.000 A 
HETATM   10  C17 UNL     1       6.896  34.581  20.056  1.00  0.00     0.001 A 
HETATM   11  C18 UNL     1       8.097  34.326  20.723  1.00  0.00     0.008 A 
ENDBRANCH   3   6
ENDBRANCH   1   3
BRANCH   1  12
HETATM   12  O2  UNL     1      11.543  33.613  19.512  1.00  0.00    -0.319 OA
BRANCH  12  13
HETATM   13  C5  UNL     1      12.929  33.817  19.183  1.00  0.00     0.205 C 
BRANCH  13  14
HETATM   14  C6  UNL     1      13.038  34.237  17.720  1.00  0.00     0.194 C 
BRANCH  14  15
HETATM   15  O3  UNL     1      11.934  35.082  17.383  1.00  0.00    -0.387 OA
BRANCH  15  16
HETATM   16  C7  UNL     1      12.350  36.227  16.634  1.00  0.00     0.198 C 
BRANCH  16  17
HETATM   17  C8  UNL     1      13.848  36.086  16.314  1.00  0.00     0.298 C 
BRANCH  17  18
HETATM   18  N1  UNL     1      14.597  37.357  16.391  1.00  0.00     0.089 N 
BRANCH  18  19
HETATM   19  C9  UNL     1      15.877  37.273  15.668  1.00  0.00     0.268 C 
HETATM   20  C10 UNL     1      16.153  35.898  15.066  1.00  0.00     0.037 C 
ENDBRANCH  18  19
BRANCH  18  21
HETATM   21  C11 UNL     1      14.728  37.809  17.788  1.00  0.00     0.268 C 
HETATM   22  C12 UNL     1      15.509  36.896  18.728  1.00  0.00     0.037 C 
ENDBRANCH  18  21
ENDBRANCH  17  18
ENDBRANCH  16  17
ENDBRANCH  15  16
ENDBRANCH  14  15
ENDBRANCH  13  14
ENDBRANCH  12  13
ENDBRANCH   1  12
TORSDOF 12
ENDMDL
