MODEL 1
REMARK minimizedAffinity -9.78186703
REMARK  6 active torsions:
REMARK  status: ('A' for Active; 'I' for Inactive)
REMARK    1  A    between atoms: C4_4  and  C5_5 
REMARK    2  A    between atoms: C5_5  and  C6_6 
REMARK    3  A    between atoms: C6_6  and  C7_7 
REMARK    4  A    between atoms: C7_7  and  C9_9 
REMARK    5  A    between atoms: C12_12  and  C13_13 
REMARK    6  A    between atoms: C13_13  and  O2_15 
ROOT
HETATM    1  C9  UNL     1      -1.436  51.911 -23.301  1.00  0.00    -0.001 C 
HETATM    2  C10 UNL     1      -0.819  51.395 -24.624  1.00  0.00     0.007 C 
HETATM    3  C11 UNL     1      -1.839  50.399 -25.222  1.00  0.00     0.026 C 
HETATM    4  C12 UNL     1      -3.139  50.630 -24.413  1.00  0.00     0.076 C 
HETATM    5  C14 UNL     1      -4.208  49.549 -24.364  1.00  0.00    -0.057 C 
HETATM    6  C15 UNL     1      -5.030  49.429 -23.292  1.00  0.00    -0.067 C 
HETATM    7  C16 UNL     1      -4.880  50.387 -22.090  1.00  0.00     0.036 C 
HETATM    8  C17 UNL     1      -3.636  51.305 -22.021  1.00  0.00     0.015 C 
HETATM    9  C18 UNL     1      -2.533  50.855 -22.981  1.00  0.00    -0.018 C 
HETATM   10  C19 UNL     1      -1.907  49.565 -22.365  1.00  0.00     0.017 C 
HETATM   11  C20 UNL     1      -6.100  48.294 -23.181  1.00  0.00    -0.015 C 
HETATM   12  C21 UNL     1      -5.578  47.322 -22.084  1.00  0.00     0.020 C 
HETATM   13  C22 UNL     1      -7.467  48.865 -22.706  1.00  0.00     0.021 C 
HETATM   14  C23 UNL     1      -8.364  49.275 -23.858  1.00  0.00     0.080 C 
HETATM   15  C24 UNL     1      -8.761  48.058 -24.662  1.00  0.00     0.135 C 
HETATM   16  O3  UNL     1      -9.867  48.011 -25.205  1.00  0.00    -0.297 OA
HETATM   17  C25 UNL     1      -7.752  46.907 -24.774  1.00  0.00     0.018 C 
HETATM   18  C26 UNL     1      -8.155  45.809 -23.769  1.00  0.00     0.023 C 
HETATM   19  C27 UNL     1      -7.899  46.276 -26.180  1.00  0.00     0.023 C 
HETATM   20  C28 UNL     1      -6.286  47.441 -24.520  1.00  0.00     0.013 C 
HETATM   21  C29 UNL     1      -5.750  48.186 -25.761  1.00  0.00     0.011 C 
HETATM   22  C30 UNL     1      -4.327  48.672 -25.569  1.00  0.00     0.036 C 
ENDROOT
BRANCH   1  23
HETATM   23  C7  UNL     1      -0.439  52.328 -22.181  1.00  0.00    -0.014 C 
HETATM   24  C8  UNL     1       0.865  52.799 -22.853  1.00  0.00     0.010 C 
BRANCH  23  25
HETATM   25  C6  UNL     1      -0.120  51.233 -21.133  1.00  0.00     0.008 C 
BRANCH  25  26
HETATM   26  C5  UNL     1      -0.695  51.499 -19.731  1.00  0.00     0.028 C 
BRANCH  26  27
HETATM   27  C4  UNL     1       0.275  52.146 -18.782  1.00  0.00    -0.025 C 
HETATM   28  C2  UNL     1       0.691  51.702 -17.579  1.00  0.00    -0.091 C 
HETATM   29  C1  UNL     1       0.245  50.430 -16.912  1.00  0.00     0.042 C 
HETATM   30  C3  UNL     1       1.682  52.503 -16.772  1.00  0.00     0.042 C 
ENDBRANCH  26  27
ENDBRANCH  25  26
ENDBRANCH  23  25
ENDBRANCH   1  23
BRANCH   4  31
HETATM   31  C13 UNL     1      -3.884  51.857 -25.023  1.00  0.00     0.153 C 
HETATM   32  O1  UNL     1      -3.429  52.733 -25.744  1.00  0.00    -0.649 OA
BRANCH  31  33
HETATM   33  O2  UNL     1      -5.170  51.971 -24.624  1.00  0.00    -0.776 OA
HETATM   34  H21 UNL     1      -5.462  52.808 -25.042  1.00  0.00     0.167 HD
ENDBRANCH  31  33
ENDBRANCH   4  31
TORSDOF 6
ENDMDL
