MODEL 1
REMARK minimizedAffinity -9.97594357
REMARK  6 active torsions:
REMARK  status: ('A' for Active; 'I' for Inactive)
REMARK    1  A    between atoms: C2_2  and  C30_31 
REMARK    2  A    between atoms: C3_3  and  C4_4 
REMARK    3  A    between atoms: C4_4  and  C5_5 
REMARK    4  A    between atoms: C5_5  and  C6_6 
REMARK    5  A    between atoms: C6_6  and  C8_8 
REMARK    6  A    between atoms: C30_31  and  O3_33 
ROOT
HETATM    1  C8  UNL     1      -0.890  51.856 -21.399  1.00  0.00    -0.002 C 
HETATM    2  C9  UNL     1      -0.168  50.697 -20.668  1.00  0.00     0.007 C 
HETATM    3  C10 UNL     1      -1.174  49.528 -20.592  1.00  0.00     0.015 C 
HETATM    4  C11 UNL     1      -2.540  50.143 -20.981  1.00  0.00    -0.013 C 
HETATM    5  C12 UNL     1      -3.117  50.767 -19.674  1.00  0.00     0.021 C 
HETATM    6  C13 UNL     1      -3.619  49.236 -21.539  1.00  0.00    -0.070 C 
HETATM    7  C14 UNL     1      -3.612  47.901 -21.427  1.00  0.00    -0.022 C 
HETATM    8  C15 UNL     1      -4.691  47.078 -22.050  1.00  0.00     0.034 C 
HETATM    9  C16 UNL     1      -6.093  47.681 -21.782  1.00  0.00     0.013 C 
HETATM   10  C17 UNL     1      -7.244  46.813 -22.417  1.00  0.00     0.018 C 
HETATM   11  C18 UNL     1      -8.602  47.074 -21.736  1.00  0.00     0.023 C 
HETATM   12  C19 UNL     1      -6.974  45.299 -22.266  1.00  0.00     0.023 C 
HETATM   13  C20 UNL     1      -7.393  47.124 -23.911  1.00  0.00     0.135 C 
HETATM   14  O1  UNL     1      -7.873  46.309 -24.702  1.00  0.00    -0.297 OA
HETATM   15  C21 UNL     1      -6.925  48.469 -24.412  1.00  0.00     0.080 C 
HETATM   16  C22 UNL     1      -7.068  49.527 -23.332  1.00  0.00     0.017 C 
HETATM   17  C23 UNL     1      -6.157  49.248 -22.102  1.00  0.00    -0.031 C 
HETATM   18  C24 UNL     1      -6.794  49.949 -20.873  1.00  0.00     0.016 C 
HETATM   19  C25 UNL     1      -4.714  49.873 -22.390  1.00  0.00     0.024 C 
HETATM   20  C26 UNL     1      -4.665  51.432 -22.417  1.00  0.00     0.010 C 
HETATM   21  C27 UNL     1      -3.271  52.104 -22.430  1.00  0.00     0.011 C 
HETATM   22  C28 UNL     1      -2.104  51.161 -22.091  1.00  0.00    -0.029 C 
HETATM   23  C29 UNL     1      -1.655  50.479 -23.416  1.00  0.00     0.016 C 
ENDROOT
BRANCH   1  24
HETATM   24  C6  UNL     1       0.004  52.818 -22.240  1.00  0.00    -0.014 C 
HETATM   25  C7  UNL     1       1.121  53.357 -21.326  1.00  0.00     0.010 C 
BRANCH  24  26
HETATM   26  C5  UNL     1       0.624  52.191 -23.515  1.00  0.00     0.008 C 
BRANCH  26  27
HETATM   27  C4  UNL     1       0.898  53.176 -24.663  1.00  0.00     0.028 C 
BRANCH  27  28
HETATM   28  C3  UNL     1       0.421  52.731 -26.017  1.00  0.00    -0.013 C 
HETATM   29  C2  UNL     1       1.081  52.005 -26.943  1.00  0.00     0.008 C 
HETATM   30  C1  UNL     1       0.439  51.669 -28.262  1.00  0.00     0.055 C 
BRANCH  29  31
HETATM   31  C30 UNL     1       2.472  51.523 -26.728  1.00  0.00     0.171 C 
HETATM   32  O2  UNL     1       2.849  50.649 -25.967  1.00  0.00    -0.646 OA
BRANCH  31  33
HETATM   33  O3  UNL     1       3.358  52.181 -27.497  1.00  0.00    -0.773 OA
HETATM   34  H46 UNL     1       4.214  51.775 -27.250  1.00  0.00     0.167 HD
ENDBRANCH  31  33
ENDBRANCH  29  31
ENDBRANCH  27  28
ENDBRANCH  26  27
ENDBRANCH  24  26
ENDBRANCH   1  24
TORSDOF 6
ENDMDL
