MODEL 1
REMARK minimizedAffinity -9.8973484
REMARK CNNscore 0.648936689
REMARK CNNaffinity 7.47334623
REMARK  12 active torsions:
REMARK  status: ('A' for Active; 'I' for Inactive)
REMARK    1  A    between atoms: C19_21  and  O3_22 
REMARK    2  A    between atoms: C19_21  and  C20_23 
REMARK    3  A    between atoms: C20_23  and  C21_25 
REMARK    4  A    between atoms: C21_25  and  O5_26 
REMARK    5  A    between atoms: O5_26  and  C22_27 
REMARK    6  A    between atoms: C22_27  and  C23_29 
REMARK    7  A    between atoms: C23_29  and  C24_30 
REMARK    8  A    between atoms: C24_30  and  C25_31 
REMARK       I    between atoms: C25_31  and  N1_33 
REMARK    9  A    between atoms: N1_33  and  C26_34 
REMARK   10  A    between atoms: C26_34  and  C27_35 
REMARK   11  A    between atoms: C30_38  and  C31_39 
REMARK   12  A    between atoms: C31_39  and  O9_41 
ROOT
HETATM    1  C1  UNL     1      -4.259  50.831 -24.765  1.00  0.00     0.021 C 
HETATM    2  C2  UNL     1      -3.929  49.342 -24.508  1.00  0.00    -0.009 C 
HETATM    3  C3  UNL     1      -2.764  48.895 -25.433  1.00  0.00     0.022 C 
HETATM    4  C4  UNL     1      -3.118  48.956 -26.917  1.00  0.00     0.084 C 
HETATM    5  C5  UNL     1      -4.431  48.277 -27.221  1.00  0.00     0.149 C 
HETATM    6  O1  UNL     1      -4.745  47.943 -28.363  1.00  0.00    -0.293 OA
HETATM    7  C6  UNL     1      -5.375  48.016 -26.109  1.00  0.00     0.053 C 
HETATM    8  C7  UNL     1      -5.153  48.480 -24.865  1.00  0.00    -0.067 C 
HETATM    9  C8  UNL     1      -6.072  48.047 -23.743  1.00  0.00     0.035 C 
HETATM   10  C9  UNL     1      -6.137  49.032 -22.582  1.00  0.00     0.010 C 
HETATM   11  C10 UNL     1      -4.758  49.473 -22.057  1.00  0.00     0.003 C 
HETATM   12  C11 UNL     1      -3.594  49.069 -23.012  1.00  0.00     0.072 C 
HETATM   13  C12 UNL     1      -2.300  49.671 -22.452  1.00  0.00     0.133 C 
HETATM   14  O2  UNL     1      -1.573  50.438 -23.078  1.00  0.00    -0.297 OA
HETATM   15  C13 UNL     1      -1.939  49.234 -21.034  1.00  0.00     0.091 C 
HETATM   16  C14 UNL     1      -3.100  49.573 -20.084  1.00  0.00     0.005 C 
HETATM   17  C15 UNL     1      -3.177  51.120 -19.943  1.00  0.00     0.019 C 
HETATM   18  C16 UNL     1      -4.406  48.939 -20.657  1.00  0.00     0.002 C 
HETATM   19  C17 UNL     1      -5.402  49.106 -19.517  1.00  0.00     0.009 C 
HETATM   20  C18 UNL     1      -4.558  48.914 -18.241  1.00  0.00     0.047 C 
HETATM   21  C19 UNL     1      -3.067  48.886 -18.684  1.00  0.00     0.128 C 
ENDROOT
BRANCH  21  22
HETATM   22  O3  UNL     1      -2.707  47.513 -18.865  1.00  0.00    -0.381 OA
HETATM   23  H25 UNL     1      -2.728  47.075 -17.995  1.00  0.00     0.211 HD
ENDBRANCH  21  22
BRANCH  21  24
HETATM   24  C20 UNL     1      -2.145  49.588 -17.654  1.00  0.00     0.185 C 
HETATM   25  O4  UNL     1      -2.564  49.962 -16.557  1.00  0.00    -0.292 OA
BRANCH  24  26
HETATM   26  C21 UNL     1      -0.699  49.844 -18.063  1.00  0.00     0.260 C 
BRANCH  26  27
HETATM   27  O5  UNL     1      -0.107  50.902 -17.306  1.00  0.00    -0.314 OA
BRANCH  27  28
HETATM   28  C22 UNL     1       0.630  51.799 -18.020  1.00  0.00     0.259 C 
HETATM   29  O6  UNL     1       1.450  52.571 -17.547  1.00  0.00    -0.265 OA
BRANCH  28  30
HETATM   30  C23 UNL     1       0.283  51.683 -19.480  1.00  0.00     0.120 C 
BRANCH  30  31
HETATM   31  C24 UNL     1      -0.141  53.030 -20.055  1.00  0.00     0.112 C 
BRANCH  31  32
HETATM   32  C25 UNL     1       0.722  53.422 -21.233  1.00  0.00     0.218 C 
HETATM   33  O7  UNL     1       1.672  54.191 -21.147  1.00  0.00    -0.274 OA
HETATM   34  N1  UNL     1       0.318  52.833 -22.412  1.00  0.00    -0.361 N 
HETATM   35  H32 UNL     1      -0.289  52.025 -22.355  1.00  0.00     0.162 HD
BRANCH  34  36
HETATM   36  C26 UNL     1       1.094  53.010 -23.625  1.00  0.00     0.127 C 
BRANCH  36  37
HETATM   37  C27 UNL     1       0.275  52.706 -24.888  1.00  0.00     0.003 C 
HETATM   38  C28 UNL     1       0.181  53.935 -25.812  1.00  0.00     0.007 C 
HETATM   39  C29 UNL     1       0.104  53.593 -27.305  1.00  0.00     0.015 C 
HETATM   40  C30 UNL     1      -0.625  52.281 -27.591  1.00  0.00     0.084 C 
HETATM   41  C32 UNL     1      -0.012  51.095 -26.826  1.00  0.00     0.015 C 
HETATM   42  C33 UNL     1       0.857  51.502 -25.632  1.00  0.00     0.007 C 
BRANCH  40  43
HETATM   43  C31 UNL     1      -2.105  52.439 -27.308  1.00  0.00     0.143 C 
HETATM   44  O8  UNL     1      -2.621  53.032 -26.377  1.00  0.00    -0.650 OA
BRANCH  43  45
HETATM   45  O9  UNL     1      -2.870  51.851 -28.250  1.00  0.00    -0.776 OA
HETATM   46  H41 UNL     1      -3.789  52.035 -27.962  1.00  0.00     0.167 HD
ENDBRANCH  43  45
ENDBRANCH  40  43
ENDBRANCH  36  37
ENDBRANCH  34  36
ENDBRANCH  31  32
ENDBRANCH  30  31
ENDBRANCH  28  30
ENDBRANCH  27  28
ENDBRANCH  26  27
ENDBRANCH  24  26
ENDBRANCH  21  24
TORSDOF 12
ENDMDL
