MODEL 1
REMARK minimizedAffinity -9.27812862
REMARK CNNscore 0.477732688
REMARK CNNaffinity 7.44324493
REMARK  18 active torsions:
REMARK  status: ('A' for Active; 'I' for Inactive)
REMARK    1  A    between atoms: C2_2  and  C4_4 
REMARK    2  A    between atoms: C4_4  and  N1_5 
REMARK    3  A    between atoms: C4_4  and  C30_38 
REMARK       I    between atoms: N1_5  and  C5_6 
REMARK    4  A    between atoms: C5_6  and  C6_8 
REMARK    5  A    between atoms: C6_8  and  C7_9 
REMARK    6  A    between atoms: C7_9  and  C8_10 
REMARK    7  A    between atoms: C8_10  and  O3_12 
REMARK    8  A    between atoms: O3_12  and  C9_13 
REMARK    9  A    between atoms: C9_13  and  C10_14 
REMARK   10  A    between atoms: C10_14  and  C11_16 
REMARK   11  A    between atoms: C11_16  and  O5_17 
REMARK   12  A    between atoms: C26_33  and  O7_34 
REMARK       I    between atoms: C30_38  and  N2_40 
REMARK   13  A    between atoms: N2_40  and  C31_41 
REMARK   14  A    between atoms: C31_41  and  C32_42 
REMARK   15  A    between atoms: C32_42  and  C33_43 
REMARK   16  A    between atoms: C32_42  and  C35_47 
REMARK   17  A    between atoms: C33_43  and  C34_44 
REMARK   18  A    between atoms: C34_44  and  O10_46 
ROOT
HETATM    1  C8  UNL     1      -3.154   3.450  11.760  1.00  0.00     0.259 C 
HETATM    2  O2  UNL     1      -2.793   2.287  11.863  1.00  0.00    -0.265 OA
ENDROOT
BRANCH   1   3
HETATM    3  C7  UNL     1      -4.563   3.941  11.955  1.00  0.00     0.120 C 
BRANCH   3   4
HETATM    4  C6  UNL     1      -5.541   2.779  12.080  1.00  0.00     0.112 C 
BRANCH   4   5
HETATM    5  C5  UNL     1      -6.742   3.145  12.922  1.00  0.00     0.218 C 
HETATM    6  N1  UNL     1      -6.517   4.244  13.720  1.00  0.00    -0.347 N 
HETATM    7  H9  UNL     1      -5.627   4.715  13.635  1.00  0.00     0.163 HD
HETATM    8  O1  UNL     1      -7.799   2.536  12.890  1.00  0.00    -0.274 OA
BRANCH   6   9
HETATM    9  C4  UNL     1      -7.601   4.913  14.461  1.00  0.00     0.179 C 
BRANCH   9  10
HETATM   10  C2  UNL     1      -7.032   5.567  15.738  1.00  0.00     0.009 C 
HETATM   11  C1  UNL     1      -5.664   6.225  15.505  1.00  0.00     0.012 C 
HETATM   12  C3  UNL     1      -8.000   6.632  16.273  1.00  0.00     0.012 C 
ENDBRANCH   9  10
BRANCH   9  13
HETATM   13  C30 UNL     1      -8.299   5.954  13.548  1.00  0.00     0.240 C 
HETATM   14  O8  UNL     1      -7.691   6.601  12.694  1.00  0.00    -0.271 OA
HETATM   15  N2  UNL     1      -9.680   5.985  13.656  1.00  0.00    -0.359 N 
HETATM   16  H43 UNL     1     -10.138   5.213  14.111  1.00  0.00     0.162 HD
BRANCH  15  17
HETATM   17  C31 UNL     1     -10.490   6.738  12.709  1.00  0.00     0.132 C 
BRANCH  17  18
HETATM   18  C32 UNL     1     -11.460   7.705  13.418  1.00  0.00     0.046 C 
BRANCH  18  19
HETATM   19  C33 UNL     1     -10.894   8.270  14.736  1.00  0.00     0.120 C 
BRANCH  19  20
HETATM   20  C34 UNL     1     -10.964   9.761  14.905  1.00  0.00     0.140 C 
HETATM   21  O9  UNL     1     -10.957  10.399  15.946  1.00  0.00    -0.650 OA
BRANCH  20  22
HETATM   22  O10 UNL     1     -10.947  10.406  13.721  1.00  0.00    -0.776 OA
HETATM   23  H49 UNL     1     -10.937  11.359  13.962  1.00  0.00     0.167 HD
ENDBRANCH  20  22
ENDBRANCH  19  20
ENDBRANCH  18  19
BRANCH  18  24
HETATM   24  C35 UNL     1     -12.875   7.161  13.565  1.00  0.00    -0.052 A 
HETATM   25  C36 UNL     1     -13.190   6.103  14.427  1.00  0.00     0.007 A 
HETATM   26  C37 UNL     1     -14.497   5.612  14.506  1.00  0.00     0.001 A 
HETATM   27  C38 UNL     1     -15.502   6.173  13.723  1.00  0.00     0.000 A 
HETATM   28  C39 UNL     1     -15.206   7.235  12.875  1.00  0.00     0.001 A 
HETATM   29  C40 UNL     1     -13.907   7.731  12.804  1.00  0.00     0.007 A 
ENDBRANCH  18  24
ENDBRANCH  17  18
ENDBRANCH  15  17
ENDBRANCH   9  13
ENDBRANCH   6   9
ENDBRANCH   4   5
ENDBRANCH   3   4
ENDBRANCH   1   3
BRANCH   1  30
HETATM   30  O3  UNL     1      -2.336   4.498  11.466  1.00  0.00    -0.314 OA
BRANCH  30  31
HETATM   31  C9  UNL     1      -1.606   4.980  12.594  1.00  0.00     0.260 C 
BRANCH  31  32
HETATM   32  C10 UNL     1      -2.136   6.358  12.959  1.00  0.00     0.185 C 
HETATM   33  O4  UNL     1      -3.142   6.787  12.392  1.00  0.00    -0.292 OA
BRANCH  32  34
HETATM   34  C11 UNL     1      -1.312   7.199  13.966  1.00  0.00     0.128 C 
HETATM   35  C12 UNL     1      -0.244   6.269  14.574  1.00  0.00     0.047 C 
HETATM   36  C13 UNL     1       0.901   7.196  14.958  1.00  0.00     0.009 C 
HETATM   37  C14 UNL     1       0.984   8.189  13.788  1.00  0.00     0.002 C 
HETATM   38  C15 UNL     1       1.884   7.619  12.657  1.00  0.00    -0.002 C 
HETATM   39  C28 UNL     1      -0.511   8.479  13.451  1.00  0.00     0.001 C 
HETATM   40  C16 UNL     1       3.363   7.828  13.071  1.00  0.00     0.010 C 
HETATM   41  C25 UNL     1       1.648   8.239  11.261  1.00  0.00     0.031 C 
HETATM   42  C17 UNL     1       4.390   7.644  11.952  1.00  0.00     0.035 C 
HETATM   43  C18 UNL     1       3.807   6.894  10.797  1.00  0.00    -0.068 C 
HETATM   44  C19 UNL     1       4.350   5.727  10.413  1.00  0.00     0.053 C 
HETATM   45  C23 UNL     1       2.563   7.524  10.155  1.00  0.00    -0.014 C 
HETATM   46  C20 UNL     1       3.787   4.930   9.300  1.00  0.00     0.149 C 
HETATM   47  O6  UNL     1       4.254   3.826   9.048  1.00  0.00    -0.293 OA
HETATM   48  C21 UNL     1       2.677   5.545   8.486  1.00  0.00     0.084 C 
HETATM   49  C22 UNL     1       1.793   6.411   9.380  1.00  0.00     0.022 C 
HETATM   50  C24 UNL     1       3.037   8.595   9.131  1.00  0.00     0.020 C 
HETATM   51  C26 UNL     1       0.146   8.229  10.926  1.00  0.00     0.124 C 
HETATM   52  C27 UNL     1      -0.706   8.910  11.987  1.00  0.00     0.045 C 
HETATM   53  C29 UNL     1      -0.933   9.731  14.286  1.00  0.00     0.019 C 
BRANCH  34  54
HETATM   54  O5  UNL     1      -2.155   7.556  15.071  1.00  0.00    -0.381 OA
HETATM   55  H16 UNL     1      -2.890   8.111  14.744  1.00  0.00     0.211 HD
ENDBRANCH  34  54
BRANCH  51  56
HETATM   56  O7  UNL     1      -0.078   8.916   9.696  1.00  0.00    -0.395 OA
HETATM   57  H37 UNL     1      -1.011   8.749   9.441  1.00  0.00     0.210 HD
ENDBRANCH  51  56
ENDBRANCH  32  34
ENDBRANCH  31  32
ENDBRANCH  30  31
ENDBRANCH   1  30
TORSDOF 18
ENDMDL
