MODEL 1
REMARK minimizedAffinity -9.04085064
REMARK  4 active torsions:
REMARK  status: ('A' for Active; 'I' for Inactive)
REMARK    1  A    between atoms: C4_4  and  C5_5 
REMARK    2  A    between atoms: C5_5  and  C6_6 
REMARK    3  A    between atoms: C6_6  and  C7_7 
REMARK    4  A    between atoms: C7_7  and  C9_9 
ROOT
HETATM    1  C9  UNL     1      -0.252  51.319 -21.168  1.00  0.00    -0.002 C 
HETATM    2  C10 UNL     1      -0.658  52.107 -19.888  1.00  0.00     0.007 C 
HETATM    3  C11 UNL     1      -2.053  51.608 -19.464  1.00  0.00     0.015 C 
HETATM    4  C12 UNL     1      -2.293  50.338 -20.306  1.00  0.00    -0.013 C 
HETATM    5  C13 UNL     1      -1.590  49.175 -19.540  1.00  0.00     0.021 C 
HETATM    6  C14 UNL     1      -3.727  49.886 -20.536  1.00  0.00    -0.070 C 
HETATM    7  C15 UNL     1      -4.755  50.226 -19.739  1.00  0.00    -0.022 C 
HETATM    8  C16 UNL     1      -6.131  49.673 -19.954  1.00  0.00     0.034 C 
HETATM    9  C17 UNL     1      -6.004  48.197 -20.361  1.00  0.00     0.013 C 
HETATM   10  C18 UNL     1      -7.328  47.376 -20.279  1.00  0.00     0.018 C 
HETATM   11  C19 UNL     1      -7.604  46.967 -18.816  1.00  0.00     0.023 C 
HETATM   12  C20 UNL     1      -8.563  48.142 -20.787  1.00  0.00     0.023 C 
HETATM   13  C21 UNL     1      -7.169  46.069 -21.068  1.00  0.00     0.135 C 
HETATM   14  O1  UNL     1      -8.141  45.429 -21.475  1.00  0.00    -0.297 OA
HETATM   15  C22 UNL     1      -5.769  45.515 -21.244  1.00  0.00     0.080 C 
HETATM   16  C23 UNL     1      -4.723  46.540 -21.697  1.00  0.00     0.017 C 
HETATM   17  C24 UNL     1      -5.197  48.018 -21.699  1.00  0.00    -0.031 C 
HETATM   18  C25 UNL     1      -6.057  48.245 -22.972  1.00  0.00     0.016 C 
HETATM   19  C26 UNL     1      -3.998  49.069 -21.804  1.00  0.00     0.024 C 
HETATM   20  C27 UNL     1      -2.718  48.531 -22.490  1.00  0.00     0.010 C 
HETATM   21  C28 UNL     1      -1.534  49.520 -22.595  1.00  0.00     0.011 C 
HETATM   22  C29 UNL     1      -1.622  50.749 -21.667  1.00  0.00    -0.029 C 
HETATM   23  C30 UNL     1      -2.392  51.883 -22.416  1.00  0.00     0.016 C 
ENDROOT
BRANCH   1  24
HETATM   24  C7  UNL     1       0.624  52.167 -22.131  1.00  0.00    -0.014 C 
HETATM   25  C8  UNL     1       1.056  53.506 -21.525  1.00  0.00     0.010 C 
BRANCH  24  26
HETATM   26  C6  UNL     1      -0.026  52.373 -23.528  1.00  0.00     0.008 C 
BRANCH  26  27
HETATM   27  C5  UNL     1       0.756  53.162 -24.590  1.00  0.00     0.028 C 
BRANCH  27  28
HETATM   28  C4  UNL     1       0.446  52.795 -26.012  1.00  0.00    -0.025 C 
HETATM   29  C2  UNL     1       1.181  52.021 -26.833  1.00  0.00    -0.091 C 
HETATM   30  C1  UNL     1       0.717  51.732 -28.237  1.00  0.00     0.042 C 
HETATM   31  C3  UNL     1       2.498  51.394 -26.473  1.00  0.00     0.042 C 
ENDBRANCH  27  28
ENDBRANCH  26  27
ENDBRANCH  24  26
ENDBRANCH   1  24
TORSDOF 4
ENDMDL
