MODEL 1
REMARK minimizedAffinity -8.2195816
REMARK CNNscore 0.556179345
REMARK CNNaffinity 7.27776861
REMARK  8 active torsions:
REMARK  status: ('A' for Active; 'I' for Inactive)
REMARK    1  A    between atoms: C4_4  and  C5_5 
REMARK    2  A    between atoms: C5_5  and  C6_6 
REMARK    3  A    between atoms: C12_14  and  O3_15 
REMARK    4  A    between atoms: C20_24  and  O5_25 
REMARK    5  A    between atoms: C27_33  and  C28_34 
REMARK    6  A    between atoms: C28_34  and  C29_35 
REMARK    7  A    between atoms: C30_36  and  C32_38 
REMARK    8  A    between atoms: C32_38  and  O8_40 
ROOT
HETATM    1  C6  UNL     1      -4.158   6.179  13.504  1.00  0.00     0.014 A 
HETATM    2  C7  UNL     1      -2.875   6.442  12.991  1.00  0.00     0.096 A 
HETATM    3  O1  UNL     1      -2.214   7.545  13.474  1.00  0.00    -0.333 OA
HETATM    4  C8  UNL     1      -0.798   7.609  13.233  1.00  0.00     0.126 C 
HETATM    5  C9  UNL     1      -0.531   7.368  11.738  1.00  0.00     0.129 C 
HETATM    6  C10 UNL     1      -1.037   5.979  11.418  1.00  0.00     0.174 C 
HETATM    7  O2  UNL     1      -0.467   5.191  10.669  1.00  0.00    -0.292 OA
HETATM    8  C11 UNL     1      -2.325   5.597  12.025  1.00  0.00     0.078 A 
HETATM    9  C12 UNL     1      -3.002   4.437  11.620  1.00  0.00     0.095 A 
HETATM   10  C13 UNL     1      -4.258   4.131  12.156  1.00  0.00     0.032 A 
HETATM   11  C14 UNL     1      -4.834   5.011  13.084  1.00  0.00     0.092 A 
HETATM   12  O4  UNL     1      -6.057   4.778  13.660  1.00  0.00    -0.335 OA
HETATM   13  C15 UNL     1      -6.912   3.752  13.122  1.00  0.00     0.078 C 
HETATM   14  C16 UNL     1      -7.492   3.015  14.335  1.00  0.00     0.051 C 
HETATM   15  C17 UNL     1      -8.039   4.455  12.355  1.00  0.00     0.051 C 
HETATM   16  C18 UNL     1      -6.226   2.758  12.218  1.00  0.00     0.012 C 
HETATM   17  C19 UNL     1      -4.982   2.926  11.767  1.00  0.00     0.016 C 
HETATM   18  C20 UNL     1       0.956   7.530  11.395  1.00  0.00     0.144 C 
HETATM   19  C21 UNL     1       1.767   7.680  12.681  1.00  0.00     0.089 C 
HETATM   20  C22 UNL     1       1.430   6.518  13.626  1.00  0.00     0.025 C 
HETATM   21  C23 UNL     1      -0.001   6.688  14.207  1.00  0.00     0.060 C 
HETATM   22  C24 UNL     1      -0.061   7.492  15.546  1.00  0.00     0.062 C 
HETATM   23  C25 UNL     1      -1.293   7.134  16.389  1.00  0.00     0.046 C 
HETATM   24  C26 UNL     1       1.170   7.369  16.451  1.00  0.00     0.046 C 
HETATM   25  O6  UNL     1      -0.188   8.878  15.168  1.00  0.00    -0.358 OA
HETATM   26  C27 UNL     1      -0.201   8.964  13.723  1.00  0.00     0.158 C 
HETATM   27  C33 UNL     1       1.294   8.971  13.320  1.00  0.00     0.171 C 
HETATM   28  O9  UNL     1       2.069   9.905  13.512  1.00  0.00    -0.294 OA
ENDROOT
BRANCH  26  29
HETATM   29  C28 UNL     1      -0.856  10.272  13.253  1.00  0.00     0.077 C 
BRANCH  29  30
HETATM   30  C29 UNL     1      -1.756  10.962  14.251  1.00  0.00    -0.010 C 
HETATM   31  C30 UNL     1      -1.563  12.148  14.860  1.00  0.00     0.008 C 
HETATM   32  C31 UNL     1      -2.557  12.720  15.828  1.00  0.00     0.055 C 
BRANCH  31  33
HETATM   33  C32 UNL     1      -0.363  12.977  14.600  1.00  0.00     0.171 C 
HETATM   34  O7  UNL     1      -0.330  14.135  14.229  1.00  0.00    -0.646 OA
BRANCH  33  35
HETATM   35  O8  UNL     1       0.767  12.298  14.864  1.00  0.00    -0.773 OA
HETATM   36  H38 UNL     1       1.464  12.946  14.626  1.00  0.00     0.167 HD
ENDBRANCH  33  35
ENDBRANCH  31  33
ENDBRANCH  29  30
ENDBRANCH  26  29
BRANCH  18  37
HETATM   37  O5  UNL     1       1.104   8.687  10.573  1.00  0.00    -0.394 OA
HETATM   38  H21 UNL     1       2.049   8.797  10.358  1.00  0.00     0.210 HD
ENDBRANCH  18  37
BRANCH   1  39
HETATM   39  C5  UNL     1      -4.848   7.149  14.445  1.00  0.00     0.072 C 
BRANCH  39  40
HETATM   40  C4  UNL     1      -6.311   7.308  14.112  1.00  0.00    -0.020 C 
HETATM   41  C2  UNL     1      -7.374   7.200  14.933  1.00  0.00    -0.091 C 
HETATM   42  C1  UNL     1      -7.311   6.891  16.402  1.00  0.00     0.042 C 
HETATM   43  C3  UNL     1      -8.771   7.398  14.403  1.00  0.00     0.042 C 
ENDBRANCH  39  40
ENDBRANCH   1  39
BRANCH   9  44
HETATM   44  O3  UNL     1      -2.462   3.575  10.693  1.00  0.00    -0.359 OA
HETATM   45  H11 UNL     1      -1.591   3.924  10.403  1.00  0.00     0.217 HD
ENDBRANCH   9  44
TORSDOF 8
ENDMDL
