MODEL 1
REMARK minimizedAffinity -6.846241
REMARK CNNscore 0.718810916
REMARK CNNaffinity 6.4983964
REMARK  9 active torsions:
REMARK  status: ('A' for Active; 'I' for Inactive)
REMARK    1  A    between atoms: C2_2  and  C3_3 
REMARK    2  A    between atoms: C3_3  and  C5_5 
REMARK    3  A    between atoms: C3_3  and  C6_7 
REMARK    4  A    between atoms: C5_5  and  O1_6 
REMARK    5  A    between atoms: C7_8  and  O2_9 
REMARK    6  A    between atoms: C18_22  and  O5_23 
REMARK    7  A    between atoms: O5_23  and  C19_24 
REMARK    8  A    between atoms: C19_24  and  C20_26 
REMARK    9  A    between atoms: C29_36  and  O8_37 
ROOT
HETATM    1  C6  UNL     1       8.203  57.923  -4.416  1.00  0.00     0.023 A 
HETATM    2  C7  UNL     1       7.105  58.722  -4.019  1.00  0.00     0.076 A 
HETATM    3  C8  UNL     1       5.835  58.586  -4.586  1.00  0.00     0.053 A 
HETATM    4  C9  UNL     1       5.620  57.658  -5.605  1.00  0.00     0.034 A 
HETATM    5  C10 UNL     1       4.274  57.541  -6.189  1.00  0.00     0.192 A 
HETATM    6  O3  UNL     1       3.365  58.249  -5.771  1.00  0.00    -0.287 OA
HETATM    7  C11 UNL     1       4.054  56.569  -7.293  1.00  0.00     0.035 A 
HETATM    8  C12 UNL     1       5.076  55.847  -7.775  1.00  0.00     0.131 A 
HETATM    9  O4  UNL     1       4.974  54.984  -8.841  1.00  0.00    -0.336 OA
HETATM   10  C13 UNL     1       3.683  54.652  -9.384  1.00  0.00     0.065 C 
HETATM   11  C14 UNL     1       3.973  54.319 -10.863  1.00  0.00     0.046 C 
HETATM   12  C15 UNL     1       3.241  53.349  -8.706  1.00  0.00     0.046 C 
HETATM   13  C16 UNL     1       2.702  55.859  -9.294  1.00  0.00     0.031 C 
HETATM   14  C17 UNL     1       1.286  55.632  -9.854  1.00  0.00     0.041 C 
HETATM   15  C18 UNL     1       0.291  55.011  -8.868  1.00  0.00     0.136 C 
HETATM   16  C23 UNL     1       0.233  55.786  -7.541  1.00  0.00     0.012 C 
HETATM   17  C24 UNL     1      -0.446  57.157  -7.661  1.00  0.00     0.012 C 
HETATM   18  C25 UNL     1       1.638  55.903  -6.935  1.00  0.00     0.017 C 
HETATM   19  C26 UNL     1       2.671  56.524  -7.898  1.00  0.00     0.033 C 
HETATM   20  C27 UNL     1       6.443  55.950  -7.181  1.00  0.00     0.219 A 
HETATM   21  O7  UNL     1       7.376  55.265  -7.593  1.00  0.00    -0.284 OA
HETATM   22  C28 UNL     1       6.676  56.890  -6.070  1.00  0.00     0.065 A 
HETATM   23  C29 UNL     1       7.960  57.031  -5.488  1.00  0.00     0.091 A 
ENDROOT
BRANCH   1  24
HETATM   24  C3  UNL     1       9.598  58.092  -3.734  1.00  0.00     0.027 C 
HETATM   25  C4  UNL     1       9.568  58.762  -2.331  1.00  0.00     0.027 C 
BRANCH  24  26
HETATM   26  C2  UNL     1      10.489  59.073  -4.526  1.00  0.00    -0.021 C 
HETATM   27  C1  UNL     1      10.107  60.111  -5.282  1.00  0.00     0.008 C 
ENDBRANCH  24  26
BRANCH  24  28
HETATM   28  C5  UNL     1      10.214  56.668  -3.530  1.00  0.00     0.182 C 
BRANCH  28  29
HETATM   29  O1  UNL     1      11.328  56.369  -4.374  1.00  0.00    -0.399 OA
HETATM   30  H9  UNL     1      11.655  57.221  -4.729  1.00  0.00     0.209 HD
ENDBRANCH  28  29
ENDBRANCH  24  28
ENDBRANCH   1  24
BRANCH   2  31
HETATM   31  O2  UNL     1       7.279  59.708  -3.083  1.00  0.00    -0.360 OA
HETATM   32  H10 UNL     1       6.415  60.082  -2.833  1.00  0.00     0.217 HD
ENDBRANCH   2  31
BRANCH  23  33
HETATM   33  O8  UNL     1       9.016  56.320  -6.002  1.00  0.00    -0.359 OA
HETATM   34  H36 UNL     1       8.705  55.727  -6.723  1.00  0.00     0.217 HD
ENDBRANCH  23  33
BRANCH  15  35
HETATM   35  O5  UNL     1      -1.028  54.995  -9.448  1.00  0.00    -0.315 OA
BRANCH  35  36
HETATM   36  C19 UNL     1      -1.671  53.790  -9.459  1.00  0.00     0.262 C 
HETATM   37  O6  UNL     1      -1.611  52.961  -8.563  1.00  0.00    -0.265 OA
BRANCH  36  38
HETATM   38  C20 UNL     1      -2.450  53.631 -10.754  1.00  0.00     0.077 C 
HETATM   39  C21 UNL     1      -3.945  53.781 -10.492  1.00  0.00     0.020 C 
HETATM   40  C22 UNL     1      -2.151  52.282 -11.408  1.00  0.00     0.020 C 
ENDBRANCH  36  38
ENDBRANCH  35  36
ENDBRANCH  15  35
TORSDOF 9
ENDMDL
