MODEL 1
REMARK minimizedAffinity -7.56523514
REMARK CNNscore 0.719055474
REMARK CNNaffinity 6.75124741
REMARK  7 active torsions:
REMARK  status: ('A' for Active; 'I' for Inactive)
REMARK    1  A    between atoms: C2_2  and  C30_33 
REMARK    2  A    between atoms: C3_3  and  C4_4 
REMARK    3  A    between atoms: C4_4  and  C5_5 
REMARK    4  A    between atoms: C5_5  and  C6_6 
REMARK    5  A    between atoms: C6_6  and  C8_8 
REMARK    6  A    between atoms: C15_15  and  O1_16 
REMARK    7  A    between atoms: C30_33  and  O5_35 
ROOT
HETATM    1  C8  UNL     1       0.760  12.273  19.260  1.00  0.00    -0.002 C 
HETATM    2  C9  UNL     1      -0.368  13.297  19.519  1.00  0.00     0.007 C 
HETATM    3  C10 UNL     1      -1.559  12.875  18.625  1.00  0.00     0.015 C 
HETATM    4  C11 UNL     1      -1.236  11.435  18.169  1.00  0.00    -0.005 C 
HETATM    5  C12 UNL     1      -1.673  10.486  19.332  1.00  0.00     0.021 C 
HETATM    6  C13 UNL     1      -1.878  10.812  16.936  1.00  0.00     0.002 C 
HETATM    7  C14 UNL     1      -1.224   9.873  16.190  1.00  0.00    -0.032 C 
HETATM    8  C15 UNL     1       0.216   9.467  16.522  1.00  0.00     0.149 C 
HETATM    9  C16 UNL     1       0.901  10.176  17.715  1.00  0.00     0.047 C 
HETATM   10  C17 UNL     1       0.319  11.577  17.940  1.00  0.00    -0.026 C 
HETATM   11  C18 UNL     1       0.650  12.465  16.704  1.00  0.00     0.016 C 
HETATM   12  C19 UNL     1      -1.904   9.228  14.948  1.00  0.00    -0.012 C 
HETATM   13  C20 UNL     1      -1.663  10.220  13.777  1.00  0.00     0.021 C 
HETATM   14  C21 UNL     1      -1.349   7.841  14.495  1.00  0.00     0.021 C 
HETATM   15  C22 UNL     1      -2.107   6.659  15.079  1.00  0.00     0.080 C 
HETATM   16  C23 UNL     1      -3.530   6.678  14.561  1.00  0.00     0.135 C 
HETATM   17  O2  UNL     1      -4.082   5.632  14.219  1.00  0.00    -0.297 OA
HETATM   18  C24 UNL     1      -4.246   8.041  14.499  1.00  0.00     0.018 C 
HETATM   19  C25 UNL     1      -4.423   8.421  13.025  1.00  0.00     0.023 C 
HETATM   20  C26 UNL     1      -5.648   7.845  15.118  1.00  0.00     0.023 C 
HETATM   21  C27 UNL     1      -3.416   9.060  15.344  1.00  0.00     0.020 C 
HETATM   22  C28 UNL     1      -4.056  10.432  15.549  1.00  0.00     0.090 C 
HETATM   23  C29 UNL     1      -3.285  11.223  16.587  1.00  0.00     0.157 C 
HETATM   24  O3  UNL     1      -3.820  12.186  17.132  1.00  0.00    -0.293 OA
ENDROOT
BRANCH   1  25
HETATM   25  C6  UNL     1       2.228  12.725  19.496  1.00  0.00    -0.014 C 
HETATM   26  C7  UNL     1       2.448  14.111  18.864  1.00  0.00     0.010 C 
BRANCH  25  27
HETATM   27  C5  UNL     1       3.425  11.788  19.204  1.00  0.00     0.008 C 
BRANCH  27  28
HETATM   28  C4  UNL     1       4.226  11.137  20.337  1.00  0.00     0.028 C 
BRANCH  28  29
HETATM   29  C3  UNL     1       3.530  10.019  21.057  1.00  0.00    -0.013 C 
HETATM   30  C2  UNL     1       3.089  10.024  22.331  1.00  0.00     0.008 C 
HETATM   31  C1  UNL     1       3.252  11.150  23.307  1.00  0.00     0.055 C 
BRANCH  30  32
HETATM   32  C30 UNL     1       2.406   8.792  22.802  1.00  0.00     0.171 C 
HETATM   33  O4  UNL     1       1.919   7.916  22.109  1.00  0.00    -0.646 OA
BRANCH  32  34
HETATM   34  O5  UNL     1       2.358   8.715  24.142  1.00  0.00    -0.773 OA
HETATM   35  H44 UNL     1       1.882   7.874  24.303  1.00  0.00     0.167 HD
ENDBRANCH  32  34
ENDBRANCH  30  32
ENDBRANCH  28  29
ENDBRANCH  27  28
ENDBRANCH  25  27
ENDBRANCH   1  25
BRANCH   8  36
HETATM   36  O1  UNL     1       1.007   9.708  15.360  1.00  0.00    -0.391 OA
HETATM   37  H22 UNL     1       1.900   9.367  15.534  1.00  0.00     0.210 HD
ENDBRANCH   8  36
TORSDOF 7
ENDMDL
