MODEL 1
REMARK minimizedAffinity -5.62207127
REMARK  1 active torsions:
REMARK  status: ('A' for Active; 'I' for Inactive)
REMARK    1  A    between atoms: N1_2  and  C2_3 
ROOT
HETATM    1  C2  UNL     1       9.485  -4.112  33.039  1.00  0.00     0.164 C 
HETATM    2  C3  UNL     1       9.987  -5.566  33.103  1.00  0.00     0.050 C 
HETATM    3  C4  UNL     1      10.649  -3.062  33.163  1.00  0.00     0.025 C 
HETATM    4  C5  UNL     1      11.768  -3.290  32.124  1.00  0.00     0.007 C 
HETATM    5  C6  UNL     1      11.135  -2.818  30.814  1.00  0.00     0.006 C 
HETATM    6  C7  UNL     1       9.710  -2.429  31.244  1.00  0.00    -0.004 C 
HETATM    7  C8  UNL     1      10.002  -1.790  32.607  1.00  0.00     0.012 C 
HETATM    8  C9  UNL     1       8.846  -3.685  31.625  1.00  0.00    -0.008 C 
HETATM    9  C10 UNL     1       8.875  -4.780  30.541  1.00  0.00     0.018 C 
HETATM   10  C11 UNL     1       7.363  -3.228  31.703  1.00  0.00     0.018 C 
ENDROOT
BRANCH   1  11
HETATM   11  N1  UNL     1       8.475  -3.927  34.112  1.00  0.00     0.089 N 
HETATM   12  C1  UNL     1       8.789  -4.472  35.423  1.00  0.00     0.307 C 
HETATM   13  H4  UNL     1       7.586  -4.320  33.799  1.00  0.00     0.316 HD
ENDBRANCH   1  11
TORSDOF 1
ENDMDL
