MODEL 1
REMARK minimizedAffinity -6.68263769
REMARK CNNscore 0.528706968
REMARK CNNaffinity 6.32619476
REMARK  12 active torsions:
REMARK  status: ('A' for Active; 'I' for Inactive)
REMARK    1  A    between atoms: C2_2  and  O2_4 
REMARK    2  A    between atoms: O2_4  and  C3_5 
REMARK    3  A    between atoms: C20_23  and  C21_24 
REMARK    4  A    between atoms: C21_24  and  C23_26 
REMARK    5  A    between atoms: C23_26  and  C24_27 
REMARK    6  A    between atoms: C24_27  and  C25_28 
REMARK    7  A    between atoms: C25_28  and  O4_29 
REMARK    8  A    between atoms: C25_28  and  C26_30 
REMARK    9  A    between atoms: C26_30  and  O5_32 
REMARK   10  A    between atoms: C26_30  and  C28_33 
REMARK   11  A    between atoms: C28_33  and  O6_34 
REMARK   12  A    between atoms: C32_38  and  O7_39 
ROOT
HETATM    1  C3  UNL     1     -17.125  45.280 -26.145  1.00  0.00     0.140 C 
HETATM    2  C4  UNL     1     -16.153  46.068 -25.247  1.00  0.00     0.034 C 
HETATM    3  C5  UNL     1     -15.045  45.184 -24.694  1.00  0.00     0.017 C 
HETATM    4  C6  UNL     1     -14.105  44.611 -25.799  1.00  0.00    -0.013 C 
HETATM    5  C7  UNL     1     -13.549  43.263 -25.267  1.00  0.00     0.021 C 
HETATM    6  C8  UNL     1     -12.853  45.461 -26.164  1.00  0.00    -0.032 C 
HETATM    7  C9  UNL     1     -12.237  45.315 -27.373  1.00  0.00     0.002 C 
HETATM    8  C10 UNL     1     -12.753  44.310 -28.371  1.00  0.00     0.157 C 
HETATM    9  O3  UNL     1     -12.081  43.978 -29.346  1.00  0.00    -0.293 OA
HETATM   10  C11 UNL     1     -14.122  43.691 -28.163  1.00  0.00     0.090 C 
HETATM   11  C12 UNL     1     -14.920  44.501 -27.143  1.00  0.00     0.015 C 
HETATM   12  C13 UNL     1     -16.438  44.142 -26.990  1.00  0.00    -0.016 C 
HETATM   13  C14 UNL     1     -17.124  44.131 -28.381  1.00  0.00     0.018 C 
HETATM   14  C15 UNL     1     -16.672  42.740 -26.393  1.00  0.00     0.018 C 
HETATM   15  C16 UNL     1     -11.076  46.214 -27.785  1.00  0.00    -0.005 C 
HETATM   16  C17 UNL     1     -11.775  47.440 -28.455  1.00  0.00     0.021 C 
HETATM   17  C18 UNL     1      -9.992  45.729 -28.768  1.00  0.00     0.015 C 
HETATM   18  C19 UNL     1      -8.784  46.657 -28.526  1.00  0.00     0.007 C 
HETATM   19  C20 UNL     1      -9.039  47.393 -27.180  1.00  0.00    -0.002 C 
HETATM   20  C29 UNL     1     -10.176  46.546 -26.528  1.00  0.00    -0.026 C 
HETATM   21  C30 UNL     1      -9.584  45.262 -25.877  1.00  0.00     0.016 C 
HETATM   22  C31 UNL     1     -11.062  47.269 -25.499  1.00  0.00     0.047 C 
HETATM   23  C32 UNL     1     -12.334  46.467 -25.137  1.00  0.00     0.149 C 
ENDROOT
BRANCH  19  24
HETATM   24  C21 UNL     1      -7.726  47.797 -26.444  1.00  0.00    -0.014 C 
HETATM   25  C22 UNL     1      -6.406  47.487 -27.168  1.00  0.00     0.010 C 
BRANCH  24  26
HETATM   26  C23 UNL     1      -7.609  47.277 -24.992  1.00  0.00     0.007 C 
BRANCH  26  27
HETATM   27  C24 UNL     1      -6.574  47.942 -24.071  1.00  0.00     0.035 C 
BRANCH  27  28
HETATM   28  C25 UNL     1      -6.793  49.447 -23.835  1.00  0.00     0.154 C 
BRANCH  28  29
HETATM   29  O4  UNL     1      -7.564  49.627 -22.646  1.00  0.00    -0.392 OA
HETATM   30  H38 UNL     1      -8.084  50.443 -22.744  1.00  0.00     0.210 HD
ENDBRANCH  28  29
BRANCH  28  31
HETATM   31  C26 UNL     1      -5.470  50.272 -23.750  1.00  0.00     0.101 C 
HETATM   32  C27 UNL     1      -5.048  50.449 -22.283  1.00  0.00     0.051 C 
BRANCH  31  33
HETATM   33  O5  UNL     1      -5.679  51.588 -24.303  1.00  0.00    -0.385 OA
HETATM   34  H42 UNL     1      -6.347  52.040 -23.758  1.00  0.00     0.210 HD
ENDBRANCH  31  33
BRANCH  31  35
HETATM   35  C28 UNL     1      -4.298  49.636 -24.532  1.00  0.00     0.204 C 
BRANCH  35  36
HETATM   36  O6  UNL     1      -4.234  50.148 -25.865  1.00  0.00    -0.398 OA
HETATM   37  H45 UNL     1      -4.409  51.106 -25.767  1.00  0.00     0.209 HD
ENDBRANCH  35  36
ENDBRANCH  31  35
ENDBRANCH  28  31
ENDBRANCH  27  28
ENDBRANCH  26  27
ENDBRANCH  24  26
ENDBRANCH  19  24
BRANCH  23  38
HETATM   38  O7  UNL     1     -12.083  45.786 -23.908  1.00  0.00    -0.391 OA
HETATM   39  H52 UNL     1     -11.444  45.079 -24.082  1.00  0.00     0.210 HD
ENDBRANCH  23  38
BRANCH   1  40
HETATM   40  O2  UNL     1     -18.146  44.728 -25.285  1.00  0.00    -0.316 OA
BRANCH  40  41
HETATM   41  C2  UNL     1     -19.196  45.530 -24.965  1.00  0.00     0.255 C 
HETATM   42  C1  UNL     1     -20.021  44.881 -23.896  1.00  0.00     0.126 C 
HETATM   43  O1  UNL     1     -19.448  46.617 -25.462  1.00  0.00    -0.266 OA
ENDBRANCH  40  41
ENDBRANCH   1  40
TORSDOF 12
ENDMDL
