MODEL 1
REMARK minimizedAffinity -10.0471716
REMARK  8 active torsions:
REMARK  status: ('A' for Active; 'I' for Inactive)
REMARK    1  A    between atoms: C4_4  and  C5_5 
REMARK    2  A    between atoms: C5_5  and  C6_6 
REMARK    3  A    between atoms: C6_6  and  C7_7 
REMARK    4  A    between atoms: C7_7  and  C9_9 
REMARK    5  A    between atoms: C19_19  and  C21_21 
REMARK    6  A    between atoms: C21_21  and  O2_23 
REMARK    7  A    between atoms: C22_24  and  O3_25 
REMARK    8  A    between atoms: C24_27  and  O4_28 
ROOT
HETATM    1  C9  UNL     1      -0.649  52.247 -21.381  1.00  0.00    -0.002 C 
HETATM    2  C10 UNL     1      -0.294  52.169 -22.895  1.00  0.00     0.006 C 
HETATM    3  C11 UNL     1      -1.019  50.937 -23.469  1.00  0.00     0.011 C 
HETATM    4  C12 UNL     1      -2.154  50.649 -22.468  1.00  0.00    -0.028 C 
HETATM    5  C13 UNL     1      -3.246  51.776 -22.725  1.00  0.00     0.016 C 
HETATM    6  C14 UNL     1      -2.890  49.227 -22.571  1.00  0.00    -0.028 C 
HETATM    7  C15 UNL     1      -1.939  47.995 -22.580  1.00  0.00     0.016 C 
HETATM    8  C16 UNL     1      -3.637  49.158 -23.955  1.00  0.00     0.011 C 
HETATM    9  C17 UNL     1      -4.857  48.250 -23.994  1.00  0.00     0.007 C 
HETATM   10  C18 UNL     1      -5.927  48.766 -23.018  1.00  0.00     0.018 C 
HETATM   11  C19 UNL     1      -7.266  47.928 -23.052  1.00  0.00     0.072 C 
HETATM   12  C20 UNL     1      -7.012  46.409 -23.176  1.00  0.00     0.030 C 
HETATM   13  C22 UNL     1      -8.169  48.252 -21.820  1.00  0.00     0.139 C 
HETATM   14  C23 UNL     1      -7.818  49.595 -21.194  1.00  0.00     0.065 C 
HETATM   15  C24 UNL     1      -6.387  49.610 -20.657  1.00  0.00     0.130 C 
HETATM   16  C25 UNL     1      -5.391  48.924 -21.593  1.00  0.00    -0.000 A 
HETATM   17  C26 UNL     1      -4.575  47.775 -21.065  1.00  0.00     0.024 A 
HETATM   18  C27 UNL     1      -3.861  49.096 -21.326  1.00  0.00    -0.021 A 
HETATM   19  C28 UNL     1      -3.312  49.640 -19.982  1.00  0.00     0.012 C 
HETATM   20  C29 UNL     1      -2.489  50.934 -20.015  1.00  0.00     0.011 C 
HETATM   21  C30 UNL     1      -1.398  50.892 -21.095  1.00  0.00    -0.032 C 
HETATM   22  C31 UNL     1      -0.350  49.830 -20.691  1.00  0.00     0.016 C 
ENDROOT
BRANCH   1  23
HETATM   23  C7  UNL     1       0.523  52.796 -20.507  1.00  0.00    -0.014 C 
HETATM   24  C8  UNL     1       1.310  53.880 -21.256  1.00  0.00     0.010 C 
BRANCH  23  25
HETATM   25  C6  UNL     1       0.168  53.256 -19.071  1.00  0.00     0.008 C 
BRANCH  25  26
HETATM   26  C5  UNL     1       0.649  52.292 -17.973  1.00  0.00     0.028 C 
BRANCH  26  27
HETATM   27  C4  UNL     1       2.044  52.570 -17.491  1.00  0.00    -0.025 C 
HETATM   28  C2  UNL     1       2.611  52.209 -16.323  1.00  0.00    -0.091 C 
HETATM   29  C1  UNL     1       1.947  51.395 -15.246  1.00  0.00     0.042 C 
HETATM   30  C3  UNL     1       4.030  52.606 -16.007  1.00  0.00     0.042 C 
ENDBRANCH  26  27
ENDBRANCH  25  26
ENDBRANCH  23  25
ENDBRANCH   1  23
BRANCH  15  31
HETATM   31  O4  UNL     1      -6.013  50.977 -20.490  1.00  0.00    -0.395 OA
HETATM   32  H41 UNL     1      -6.559  51.334 -19.770  1.00  0.00     0.210 HD
ENDBRANCH  15  31
BRANCH  11  33
HETATM   33  C21 UNL     1      -8.062  48.360 -24.289  1.00  0.00     0.151 C 
HETATM   34  O1  UNL     1      -8.639  47.643 -25.090  1.00  0.00    -0.649 OA
BRANCH  33  35
HETATM   35  O2  UNL     1      -8.070  49.696 -24.487  1.00  0.00    -0.776 OA
HETATM   36  H35 UNL     1      -8.618  49.809 -25.294  1.00  0.00     0.167 HD
ENDBRANCH  33  35
ENDBRANCH  11  33
BRANCH  13  37
HETATM   37  O3  UNL     1      -8.077  47.264 -20.788  1.00  0.00    -0.394 OA
HETATM   38  H37 UNL     1      -8.593  46.489 -21.074  1.00  0.00     0.210 HD
ENDBRANCH  13  37
TORSDOF 8
ENDMDL
