MODEL 1
REMARK minimizedAffinity -8.70490837
REMARK CNNscore 0.569199562
REMARK CNNaffinity 7.47474432
REMARK  9 active torsions:
REMARK  status: ('A' for Active; 'I' for Inactive)
REMARK    1  A    between atoms: O1_2  and  C2_3 
REMARK    2  A    between atoms: C2_3  and  C3_4 
REMARK    3  A    between atoms: C3_4  and  N1_5 
REMARK       I    between atoms: N1_5  and  C4_6 
REMARK    4  A    between atoms: C4_6  and  C5_8 
REMARK    5  A    between atoms: C5_8  and  C7_10 
REMARK    6  A    between atoms: C15_20  and  C16_21 
REMARK    7  A    between atoms: C16_21  and  O3_22 
REMARK    8  A    between atoms: O3_22  and  C17_23 
REMARK    9  A    between atoms: C26_34  and  O4_35 
ROOT
HETATM    1  C7  UNL     1      -2.968  49.187 -25.380  1.00  0.00     0.027 C 
HETATM    2  C8  UNL     1      -1.971  49.752 -26.399  1.00  0.00     0.009 C 
HETATM    3  C9  UNL     1      -0.780  50.382 -25.684  1.00  0.00     0.010 C 
HETATM    4  C10 UNL     1      -1.146  51.528 -24.705  1.00  0.00    -0.033 C 
HETATM    5  C11 UNL     1      -1.559  52.767 -25.549  1.00  0.00     0.016 C 
HETATM    6  C12 UNL     1       0.171  51.936 -23.938  1.00  0.00     0.058 C 
HETATM    7  C13 UNL     1      -0.049  52.141 -22.481  1.00  0.00     0.008 A 
HETATM    8  C14 UNL     1      -1.009  51.504 -21.735  1.00  0.00     0.027 A 
HETATM    9  N2  UNL     1      -1.034  51.822 -20.398  1.00  0.00    -0.354 N 
ATOM     10  H2  UNL     1      -1.701  51.457 -19.718  1.00  0.00     0.166 HD
HETATM   11  C15 UNL     1      -0.060  52.674 -20.130  1.00  0.00     0.076 A 
HETATM   12  S1  UNL     1       0.884  53.160 -21.494  1.00  0.00    -0.077 SA
HETATM   13  C23 UNL     1      -1.990  50.560 -22.356  1.00  0.00     0.040 C 
HETATM   14  C24 UNL     1      -1.451  49.133 -22.326  1.00  0.00     0.017 C 
HETATM   15  C25 UNL     1      -2.371  51.134 -23.762  1.00  0.00     0.033 C 
HETATM   16  C26 UNL     1      -3.489  50.312 -24.459  1.00  0.00     0.128 C 
ENDROOT
BRANCH   1  17
HETATM   17  C5  UNL     1      -4.064  48.325 -26.079  1.00  0.00     0.080 C 
HETATM   18  C6  UNL     1      -4.479  48.783 -27.478  1.00  0.00     0.020 C 
BRANCH  17  19
HETATM   19  C4  UNL     1      -5.295  48.161 -25.179  1.00  0.00     0.222 C 
HETATM   20  N1  UNL     1      -6.498  48.221 -25.852  1.00  0.00    -0.359 N 
HETATM   21  H8  UNL     1      -6.479  48.071 -26.853  1.00  0.00     0.162 HD
HETATM   22  O2  UNL     1      -5.228  47.962 -23.968  1.00  0.00    -0.273 OA
BRANCH  20  23
HETATM   23  C3  UNL     1      -7.746  47.899 -25.181  1.00  0.00     0.148 C 
BRANCH  23  24
HETATM   24  C2  UNL     1      -8.465  49.162 -24.696  1.00  0.00     0.186 C 
BRANCH  24  25
HETATM   25  O1  UNL     1      -9.547  49.507 -25.574  1.00  0.00    -0.394 OA
HETATM   26  C1  UNL     1     -10.004  48.407 -26.348  1.00  0.00     0.201 C 
ENDBRANCH  24  25
ENDBRANCH  23  24
ENDBRANCH  20  23
ENDBRANCH  17  19
ENDBRANCH   1  17
BRANCH  16  27
HETATM   27  O4  UNL     1      -4.277  51.222 -25.234  1.00  0.00    -0.395 OA
HETATM   28  H35 UNL     1      -4.754  51.794 -24.608  1.00  0.00     0.210 HD
ENDBRANCH  16  27
BRANCH  11  29
HETATM   29  C16 UNL     1       0.220  53.241 -18.770  1.00  0.00     0.240 C 
BRANCH  29  30
HETATM   30  O3  UNL     1       0.329  52.166 -17.835  1.00  0.00    -0.345 OA
BRANCH  30  31
HETATM   31  C17 UNL     1       1.374  52.116 -16.959  1.00  0.00     0.070 A 
HETATM   32  C18 UNL     1       2.579  52.814 -17.049  1.00  0.00     0.037 A 
HETATM   33  C19 UNL     1       3.562  52.652 -16.067  1.00  0.00     0.004 A 
HETATM   34  C20 UNL     1       3.347  51.793 -14.990  1.00  0.00     0.024 A 
HETATM   35  C21 UNL     1       2.146  51.096 -14.900  1.00  0.00     0.036 A 
HETATM   36 CL1  UNL     1       1.874  50.032 -13.575  1.00  0.00    -0.084 Cl
HETATM   37  C22 UNL     1       1.166  51.253 -15.877  1.00  0.00     0.060 A 
ENDBRANCH  30  31
ENDBRANCH  29  30
ENDBRANCH  11  29
TORSDOF 9
ENDMDL
