MODEL 1
REMARK minimizedAffinity -8.99125862
REMARK  4 active torsions:
REMARK  status: ('A' for Active; 'I' for Inactive)
REMARK    1  A    between atoms: C10_11  and  O2_12 
REMARK    2  A    between atoms: C14_16  and  C15_17 
REMARK    3  A    between atoms: C15_17  and  O3_18 
REMARK    4  A    between atoms: C16_20  and  O5_21 
ROOT
HETATM    1  C1  UNL     1      -1.428   8.760  12.309  1.00  0.00     0.023 C 
HETATM    2  C2  UNL     1      -0.030   8.142  12.449  1.00  0.00     0.018 C 
HETATM    3  C3  UNL     1       0.896   9.192  13.102  1.00  0.00     0.023 C 
HETATM    4  C4  UNL     1       0.512   7.895  11.030  1.00  0.00     0.135 C 
HETATM    5  O1  UNL     1       0.862   8.816  10.291  1.00  0.00    -0.297 OA
HETATM    6  C5  UNL     1       0.621   6.464  10.567  1.00  0.00     0.080 C 
HETATM    7  C6  UNL     1      -0.612   5.700  11.020  1.00  0.00     0.022 C 
HETATM    8  C7  UNL     1      -0.743   5.585  12.573  1.00  0.00    -0.007 C 
HETATM    9  C8  UNL     1      -0.053   4.262  13.015  1.00  0.00     0.021 C 
HETATM   10  C9  UNL     1      -2.217   5.484  13.017  1.00  0.00     0.003 A 
HETATM   11  C10 UNL     1      -3.142   4.668  12.335  1.00  0.00     0.107 A 
HETATM   12  C11 UNL     1      -4.469   4.620  12.732  1.00  0.00     0.112 A 
HETATM   13  C12 UNL     1      -4.935   5.335  13.809  1.00  0.00     0.015 A 
HETATM   14  C13 UNL     1      -6.367   5.029  14.029  1.00  0.00     0.079 C 
HETATM   15  C14 UNL     1      -6.678   4.337  12.693  1.00  0.00     0.157 C 
HETATM   16  O4  UNL     1      -5.424   3.850  12.118  1.00  0.00    -0.340 OA
HETATM   17  C16 UNL     1      -4.066   6.117  14.538  1.00  0.00     0.089 A 
HETATM   18  C17 UNL     1      -2.705   6.188  14.154  1.00  0.00     0.053 A 
HETATM   19  C18 UNL     1      -1.784   6.988  14.997  1.00  0.00     0.163 C 
HETATM   20  O6  UNL     1      -2.231   7.660  15.924  1.00  0.00    -0.292 OA
HETATM   21  C19 UNL     1      -0.314   6.889  14.738  1.00  0.00     0.091 C 
HETATM   22  C20 UNL     1       0.022   6.785  13.249  1.00  0.00     0.021 C 
ENDROOT
BRANCH  15  23
HETATM   23  C15 UNL     1      -7.639   3.156  12.829  1.00  0.00     0.196 C 
BRANCH  23  24
HETATM   24  O3  UNL     1      -8.950   3.586  13.191  1.00  0.00    -0.398 OA
HETATM   25  H20 UNL     1      -8.846   4.212  13.930  1.00  0.00     0.209 HD
ENDBRANCH  23  24
ENDBRANCH  15  23
BRANCH  17  26
HETATM   26  O5  UNL     1      -4.589   6.775  15.617  1.00  0.00    -0.359 OA
HETATM   27  H21 UNL     1      -3.870   7.302  16.034  1.00  0.00     0.217 HD
ENDBRANCH  17  26
BRANCH  11  28
HETATM   28  O2  UNL     1      -2.764   3.891  11.278  1.00  0.00    -0.357 OA
HETATM   29  H14 UNL     1      -3.569   3.427  10.974  1.00  0.00     0.217 HD
ENDBRANCH  11  28
TORSDOF 4
ENDMDL
