MODEL 1
REMARK minimizedAffinity -7.15470314
REMARK CNNscore 0.353435397
REMARK CNNaffinity 5.86366653
REMARK  12 active torsions:
REMARK  status: ('A' for Active; 'I' for Inactive)
REMARK    1  A    between atoms: O1_2  and  C2_3 
REMARK    2  A    between atoms: C3_6  and  C4_7 
REMARK    3  A    between atoms: C4_7  and  C5_8 
REMARK    4  A    between atoms: C6_9  and  C8_11 
REMARK    5  A    between atoms: C8_11  and  C9_12 
REMARK    6  A    between atoms: C10_13  and  C11_14 
REMARK    7  A    between atoms: C13_16  and  C14_17 
REMARK    8  A    between atoms: C14_17  and  C16_19 
REMARK    9  A    between atoms: C16_19  and  O2_20 
REMARK   10  A    between atoms: C16_19  and  C18_22 
REMARK   11  A    between atoms: C24_29  and  O4_30 
REMARK   12  A    between atoms: C25_31  and  O5_32 
ROOT
HETATM    1  C5  UNL     1      -2.424  50.059 -24.990  1.00  0.00    -0.018 C 
HETATM    2  C6  UNL     1      -3.200  49.131 -25.588  1.00  0.00    -0.084 C 
HETATM    3  C7  UNL     1      -2.985  48.600 -26.981  1.00  0.00     0.043 C 
ENDROOT
BRANCH   2   4
HETATM    4  C8  UNL     1      -4.424  48.581 -24.881  1.00  0.00     0.060 C 
BRANCH   4   5
HETATM    5  C9  UNL     1      -5.462  48.097 -25.856  1.00  0.00    -0.022 C 
HETATM    6  C10 UNL     1      -6.729  47.807 -25.517  1.00  0.00     0.003 C 
BRANCH   6   7
HETATM    7  C11 UNL     1      -7.779  47.322 -26.413  1.00  0.00    -0.066 C 
HETATM    8  C12 UNL     1      -9.195  47.312 -25.893  1.00  0.00     0.048 C 
HETATM    9  C13 UNL     1      -7.424  46.889 -27.642  1.00  0.00    -0.013 C 
BRANCH   9  10
HETATM   10  C14 UNL     1      -8.328  46.376 -28.758  1.00  0.00     0.037 C 
HETATM   11  C15 UNL     1      -9.164  45.221 -28.190  1.00  0.00     0.017 C 
BRANCH  10  12
HETATM   12  C16 UNL     1      -9.202  47.530 -29.332  1.00  0.00     0.165 C 
BRANCH  12  13
HETATM   13  O2  UNL     1      -8.514  48.052 -30.486  1.00  0.00    -0.387 OA
HETATM   14  C17 UNL     1      -8.601  49.465 -30.600  1.00  0.00     0.202 C 
ENDBRANCH  12  13
BRANCH  12  15
HETATM   15  C18 UNL     1     -10.590  47.054 -29.742  1.00  0.00     0.110 A 
HETATM   16  C19 UNL     1     -10.685  46.124 -30.915  1.00  0.00     0.051 C 
HETATM   17  O3  UNL     1     -11.590  48.094 -29.749  1.00  0.00    -0.367 OA
HETATM   18  C20 UNL     1     -11.713  47.122 -28.711  1.00  0.00     0.155 A 
HETATM   19  C21 UNL     1     -12.941  46.286 -28.782  1.00  0.00     0.042 C 
ENDBRANCH  12  15
ENDBRANCH  10  12
ENDBRANCH   9  10
ENDBRANCH   6   7
ENDBRANCH   4   5
ENDBRANCH   2   4
BRANCH   1  20
HETATM   20  C4  UNL     1      -1.179  50.718 -25.524  1.00  0.00     0.085 C 
BRANCH  20  21
HETATM   21  C3  UNL     1      -0.541  51.671 -24.534  1.00  0.00     0.023 A 
HETATM   22  N1  UNL     1      -0.605  51.272 -23.234  1.00  0.00    -0.337 N 
HETATM   23  C2  UNL     1      -0.014  52.034 -22.281  1.00  0.00     0.179 A 
ATOM     24  H1  UNL     1      -1.090  50.412 -22.981  1.00  0.00     0.168 HD
HETATM   25  C25 UNL     1       0.670  53.209 -22.565  1.00  0.00     0.153 A 
HETATM   26  C24 UNL     1       0.700  53.599 -23.909  1.00  0.00     0.111 A 
HETATM   27  C22 UNL     1       0.093  52.856 -24.924  1.00  0.00    -0.003 A 
HETATM   28  C23 UNL     1       0.191  53.293 -26.357  1.00  0.00     0.053 C 
BRANCH  23  29
HETATM   29  O1  UNL     1      -0.124  51.614 -20.972  1.00  0.00    -0.339 OA
HETATM   30  C1  UNL     1      -0.325  50.210 -20.832  1.00  0.00     0.211 C 
ENDBRANCH  23  29
BRANCH  25  31
HETATM   31  O5  UNL     1       1.322  54.071 -21.722  1.00  0.00    -0.349 OA
HETATM   32  C26 UNL     1       1.461  53.680 -20.362  1.00  0.00     0.210 C 
ENDBRANCH  25  31
BRANCH  26  33
HETATM   33  O4  UNL     1       1.368  54.756 -24.241  1.00  0.00    -0.357 OA
HETATM   34  H36 UNL     1       1.708  55.109 -23.395  1.00  0.00     0.217 HD
ENDBRANCH  26  33
ENDBRANCH  20  21
ENDBRANCH   1  20
TORSDOF 12
ENDMDL
