MODEL 1
REMARK minimizedAffinity -9.25231075
REMARK CNNscore 0.602920175
REMARK CNNaffinity 7.14338446
REMARK  10 active torsions:
REMARK  status: ('A' for Active; 'I' for Inactive)
REMARK    1  A    between atoms: N1_15  and  C13_16 
REMARK    2  A    between atoms: C13_16  and  C14_17 
REMARK    3  A    between atoms: C14_17  and  N2_18 
REMARK    4  A    between atoms: N2_18  and  C15_19 
REMARK    5  A    between atoms: C15_19  and  C16_20 
REMARK    6  A    between atoms: C16_20  and  C17_21 
REMARK    7  A    between atoms: C17_21  and  N3_22 
REMARK    8  A    between atoms: N3_22  and  C18_23 
REMARK    9  A    between atoms: C18_23  and  C19_24 
REMARK   10  A    between atoms: C19_24  and  N4_25 
ROOT
HETATM    1  C16 UNL     1      -1.779  51.439 -27.580  1.00  0.00     0.060 C 
ENDROOT
BRANCH   1   2
HETATM    2  C15 UNL     1      -0.276  51.464 -27.283  1.00  0.00     0.271 C 
BRANCH   2   3
HETATM    3  N2  UNL     1       0.090  52.689 -26.559  1.00  0.00     0.085 N 
HETATM    4  H11 UNL     1       0.731  53.224 -27.148  1.00  0.00     0.315 HD
BRANCH   3   5
HETATM    5  C14 UNL     1       0.781  52.426 -25.286  1.00  0.00     0.289 C 
BRANCH   5   6
HETATM    6  C13 UNL     1       0.495  53.434 -24.159  1.00  0.00     0.165 C 
BRANCH   6   7
HETATM    7  N1  UNL     1       0.279  52.765 -22.875  1.00  0.00    -0.278 N 
HETATM    8  C1  UNL     1      -0.402  51.548 -22.890  1.00  0.00     0.261 A 
HETATM    9  O1  UNL     1      -0.815  51.009 -23.913  1.00  0.00    -0.267 OA
HETATM   10  C2  UNL     1      -0.610  50.879 -21.585  1.00  0.00     0.044 A 
HETATM   11  C3  UNL     1      -1.341  49.685 -21.530  1.00  0.00     0.018 A 
HETATM   12  C11 UNL     1      -0.073  51.444 -20.423  1.00  0.00     0.005 A 
HETATM   13  C4  UNL     1      -1.540  49.046 -20.309  1.00  0.00     0.002 A 
HETATM   14  C5  UNL     1      -1.008  49.596 -19.142  1.00  0.00     0.012 A 
HETATM   15  C6  UNL     1      -0.272  50.791 -19.182  1.00  0.00    -0.024 A 
HETATM   16  C7  UNL     1       0.273  51.349 -18.014  1.00  0.00     0.012 A 
HETATM   17  C8  UNL     1       1.006  52.535 -18.063  1.00  0.00     0.002 A 
HETATM   18  C9  UNL     1       1.201  53.177 -19.283  1.00  0.00     0.018 A 
HETATM   19  C10 UNL     1       0.663  52.633 -20.457  1.00  0.00     0.044 A 
HETATM   20  C12 UNL     1       0.877  53.327 -21.748  1.00  0.00     0.261 A 
HETATM   21  O2  UNL     1       1.571  54.340 -21.772  1.00  0.00    -0.267 OA
ENDBRANCH   6   7
ENDBRANCH   5   6
ENDBRANCH   3   5
ENDBRANCH   2   3
ENDBRANCH   1   2
BRANCH   1  22
HETATM   22  C17 UNL     1      -2.495  50.262 -26.910  1.00  0.00     0.271 C 
BRANCH  22  23
HETATM   23  N3  UNL     1      -3.795  50.004 -27.528  1.00  0.00     0.085 N 
HETATM   24  H18 UNL     1      -3.883  50.560 -28.381  1.00  0.00     0.315 HD
BRANCH  23  25
HETATM   25  C18 UNL     1      -3.949  48.581 -27.859  1.00  0.00     0.289 C 
BRANCH  25  26
HETATM   26  C19 UNL     1      -5.307  48.042 -27.377  1.00  0.00     0.165 C 
BRANCH  26  27
HETATM   27  N4  UNL     1      -6.261  47.903 -28.478  1.00  0.00    -0.278 N 
HETATM   28  C20 UNL     1      -7.618  47.890 -28.154  1.00  0.00     0.261 C 
HETATM   29  O3  UNL     1      -8.048  48.016 -27.010  1.00  0.00    -0.267 OA
HETATM   30  C21 UNL     1      -8.573  47.731 -29.273  1.00  0.00     0.044 A 
HETATM   31  C22 UNL     1      -9.945  47.632 -29.003  1.00  0.00     0.018 A 
HETATM   32  C30 UNL     1      -8.099  47.683 -30.589  1.00  0.00     0.005 A 
HETATM   33  C23 UNL     1     -10.852  47.480 -30.048  1.00  0.00     0.002 A 
HETATM   34  C24 UNL     1     -10.393  47.430 -31.364  1.00  0.00     0.012 A 
HETATM   35  C25 UNL     1      -9.022  47.532 -31.651  1.00  0.00    -0.024 A 
HETATM   36  C26 UNL     1      -8.551  47.490 -32.973  1.00  0.00     0.012 A 
HETATM   37  C27 UNL     1      -7.188  47.598 -33.249  1.00  0.00     0.002 A 
HETATM   38  C28 UNL     1      -6.279  47.747 -32.206  1.00  0.00     0.018 A 
HETATM   39  C29 UNL     1      -6.734  47.786 -30.880  1.00  0.00     0.044 A 
HETATM   40  C31 UNL     1      -5.758  47.939 -29.778  1.00  0.00     0.261 C 
HETATM   41  O4  UNL     1      -4.571  48.101 -30.048  1.00  0.00    -0.267 OA
ENDBRANCH  26  27
ENDBRANCH  25  26
ENDBRANCH  23  25
ENDBRANCH  22  23
ENDBRANCH   1  22
TORSDOF 10
ENDMDL
