MODEL 1
REMARK minimizedAffinity -7.11968708
REMARK CNNscore 0.811490417
REMARK CNNaffinity 7.29492807
REMARK  5 active torsions:
REMARK  status: ('A' for Active; 'I' for Inactive)
REMARK    1  A    between atoms: C2_2  and  C4_4 
REMARK    2  A    between atoms: C7_7  and  C8_8 
REMARK    3  A    between atoms: C8_8  and  O2_10 
REMARK    4  A    between atoms: C21_24  and  C23_26 
REMARK    5  A    between atoms: C23_26  and  O4_27 
ROOT
HETATM    1  C4  UNL     1       2.572  56.344  -8.871  1.00  0.00     0.019 C 
HETATM    2  C5  UNL     1       3.089  57.062  -7.593  1.00  0.00     0.011 C 
HETATM    3  C6  UNL     1       2.287  56.498  -6.395  1.00  0.00     0.021 C 
HETATM    4  C7  UNL     1       1.133  55.695  -7.028  1.00  0.00     0.050 C 
HETATM    5  C9  UNL     1       0.634  54.521  -6.174  1.00  0.00     0.022 C 
HETATM    6  C10 UNL     1      -0.199  53.507  -7.002  1.00  0.00     0.011 C 
HETATM    7  C11 UNL     1       0.481  52.951  -8.313  1.00  0.00    -0.032 C 
HETATM    8  C12 UNL     1       1.693  52.099  -7.813  1.00  0.00     0.016 C 
HETATM    9  C13 UNL     1       0.998  54.189  -9.152  1.00  0.00     0.000 C 
HETATM   10  C14 UNL     1      -0.092  54.961  -9.926  1.00  0.00     0.006 C 
HETATM   11  C15 UNL     1      -1.387  54.195 -10.154  1.00  0.00     0.006 C 
HETATM   12  C16 UNL     1      -1.058  52.745 -10.488  1.00  0.00     0.003 C 
HETATM   13  C17 UNL     1      -2.152  51.993 -11.343  1.00  0.00    -0.031 C 
HETATM   14  C18 UNL     1      -3.579  52.240 -10.786  1.00  0.00     0.016 C 
HETATM   15  C19 UNL     1      -2.119  52.550 -12.792  1.00  0.00     0.036 C 
HETATM   16  C20 UNL     1      -3.088  51.841 -13.733  1.00  0.00     0.169 C 
HETATM   17  O3  UNL     1      -3.437  50.529 -13.307  1.00  0.00    -0.378 OA
HETATM   18  C21 UNL     1      -2.355  49.761 -12.749  1.00  0.00     0.082 C 
HETATM   19  C22 UNL     1      -2.998  48.409 -12.373  1.00  0.00     0.049 C 
HETATM   20  C24 UNL     1      -1.845  50.453 -11.419  1.00  0.00     0.030 C 
HETATM   21  C25 UNL     1      -0.369  50.140 -11.114  1.00  0.00     0.009 C 
HETATM   22  C26 UNL     1       0.227  50.745  -9.829  1.00  0.00     0.011 C 
HETATM   23  C27 UNL     1      -0.511  51.986  -9.225  1.00  0.00    -0.032 C 
HETATM   24  C28 UNL     1      -1.615  51.422  -8.294  1.00  0.00     0.016 C 
HETATM   25  C29 UNL     1       1.855  55.124  -8.269  1.00  0.00     0.017 C 
ENDROOT
BRANCH   4  26
HETATM   26  C8  UNL     1      -0.057  56.657  -7.236  1.00  0.00     0.149 C 
HETATM   27  O1  UNL     1      -0.674  56.845  -8.272  1.00  0.00    -0.649 OA
BRANCH  26  28
HETATM   28  O2  UNL     1      -0.436  57.341  -6.141  1.00  0.00    -0.776 OA
HETATM   29  H11 UNL     1      -1.191  57.881  -6.456  1.00  0.00     0.167 HD
ENDBRANCH  26  28
ENDBRANCH   4  26
BRANCH   1  30
HETATM   30  C2  UNL     1       3.684  56.129  -9.885  1.00  0.00    -0.088 C 
HETATM   31  C1  UNL     1       4.855  55.520  -9.635  1.00  0.00     0.014 C 
HETATM   32  C3  UNL     1       3.391  56.664 -11.265  1.00  0.00     0.043 C 
ENDBRANCH   1  30
BRANCH  18  33
HETATM   33  C23 UNL     1      -1.297  49.504 -13.863  1.00  0.00     0.202 C 
BRANCH  33  34
HETATM   34  O4  UNL     1      -0.157  50.354 -13.800  1.00  0.00    -0.398 OA
HETATM   35  H37 UNL     1       0.393  50.050 -13.056  1.00  0.00     0.209 HD
ENDBRANCH  33  34
ENDBRANCH  18  33
TORSDOF 5
ENDMDL
