MODEL 1
REMARK minimizedAffinity -8.43710423
REMARK CNNscore 0.359210044
REMARK CNNaffinity 6.09908295
REMARK  10 active torsions:
REMARK  status: ('A' for Active; 'I' for Inactive)
REMARK    1  A    between atoms: C2_2  and  C4_4 
REMARK    2  A    between atoms: C7_7  and  C8_8 
REMARK    3  A    between atoms: C8_8  and  O2_10 
REMARK    4  A    between atoms: C21_23  and  O3_24 
REMARK    5  A    between atoms: O3_24  and  C22_25 
REMARK    6  A    between atoms: C24_28  and  O5_29 
REMARK    7  A    between atoms: C25_30  and  O6_31 
REMARK    8  A    between atoms: C26_32  and  O7_33 
REMARK    9  A    between atoms: C27_34  and  C29_36 
REMARK   10  A    between atoms: C29_36  and  O8_37 
ROOT
HETATM    1  C4  UNL     1     -18.039  45.348 -21.613  1.00  0.00     0.019 C 
HETATM    2  C5  UNL     1     -19.565  45.193 -21.693  1.00  0.00     0.011 C 
HETATM    3  C6  UNL     1     -19.849  44.718 -23.112  1.00  0.00     0.021 C 
HETATM    4  C7  UNL     1     -18.628  45.129 -23.980  1.00  0.00     0.050 C 
HETATM    5  C9  UNL     1     -17.970  43.868 -24.582  1.00  0.00     0.022 C 
HETATM    6  C10 UNL     1     -16.577  44.125 -25.158  1.00  0.00     0.011 C 
HETATM    7  C11 UNL     1     -15.571  44.687 -24.112  1.00  0.00    -0.032 C 
HETATM    8  C12 UNL     1     -15.375  43.601 -23.013  1.00  0.00     0.016 C 
HETATM    9  C13 UNL     1     -16.210  45.991 -23.511  1.00  0.00     0.000 C 
HETATM   10  C14 UNL     1     -15.262  46.705 -22.547  1.00  0.00     0.006 C 
HETATM   11  C15 UNL     1     -13.906  47.018 -23.178  1.00  0.00     0.006 C 
HETATM   12  C16 UNL     1     -13.209  45.749 -23.711  1.00  0.00     0.003 C 
HETATM   13  C17 UNL     1     -11.653  45.935 -24.016  1.00  0.00    -0.035 C 
HETATM   14  C18 UNL     1     -10.982  46.069 -22.604  1.00  0.00     0.016 C 
HETATM   15  C19 UNL     1     -11.355  47.237 -24.798  1.00  0.00     0.012 C 
HETATM   16  C20 UNL     1      -9.892  47.412 -25.212  1.00  0.00     0.034 C 
HETATM   17  C21 UNL     1      -9.361  46.232 -26.029  1.00  0.00     0.135 C 
HETATM   18  C27 UNL     1      -9.544  44.860 -25.308  1.00  0.00     0.008 C 
HETATM   19  C28 UNL     1      -9.176  43.724 -26.309  1.00  0.00     0.020 C 
HETATM   20  C30 UNL     1     -11.031  44.667 -24.744  1.00  0.00     0.007 C 
HETATM   21  C31 UNL     1     -11.984  44.075 -25.809  1.00  0.00     0.007 C 
HETATM   22  C32 UNL     1     -13.387  43.793 -25.282  1.00  0.00     0.011 C 
HETATM   23  C33 UNL     1     -14.125  45.058 -24.794  1.00  0.00    -0.032 C 
HETATM   24  C34 UNL     1     -14.342  45.950 -26.055  1.00  0.00     0.016 C 
HETATM   25  C35 UNL     1     -17.688  45.911 -23.011  1.00  0.00     0.017 C 
ENDROOT
BRANCH  17  26
HETATM   26  O3  UNL     1     -10.044  46.248 -27.290  1.00  0.00    -0.352 OA
BRANCH  26  27
HETATM   27  C22 UNL     1      -9.227  46.669 -28.386  1.00  0.00     0.291 C 
HETATM   28  O4  UNL     1      -9.435  45.795 -29.504  1.00  0.00    -0.356 OA
HETATM   29  C23 UNL     1     -10.498  46.220 -30.362  1.00  0.00     0.205 C 
HETATM   30  C24 UNL     1     -10.139  47.544 -31.058  1.00  0.00     0.173 C 
HETATM   31  C25 UNL     1      -9.201  48.391 -30.185  1.00  0.00     0.182 C 
HETATM   32  C26 UNL     1      -9.516  48.157 -28.709  1.00  0.00     0.204 C 
BRANCH  30  33
HETATM   33  O5  UNL     1      -9.488  47.274 -32.309  1.00  0.00    -0.391 OA
HETATM   34  H37 UNL     1      -9.369  48.124 -32.770  1.00  0.00     0.210 HD
ENDBRANCH  30  33
BRANCH  31  35
HETATM   35  O6  UNL     1      -9.346  49.788 -30.499  1.00  0.00    -0.390 OA
HETATM   36  H39 UNL     1      -8.708  49.983 -31.211  1.00  0.00     0.210 HD
ENDBRANCH  31  35
BRANCH  32  37
HETATM   37  O7  UNL     1      -8.701  49.028 -27.907  1.00  0.00    -0.388 OA
HETATM   38  H41 UNL     1      -8.771  49.904 -28.341  1.00  0.00     0.210 HD
ENDBRANCH  32  37
ENDBRANCH  26  27
ENDBRANCH  17  26
BRANCH  18  39
HETATM   39  C29 UNL     1      -8.452  44.757 -24.194  1.00  0.00     0.176 C 
BRANCH  39  40
HETATM   40  O8  UNL     1      -7.587  45.885 -24.157  1.00  0.00    -0.400 OA
HETATM   41  H47 UNL     1      -6.926  45.776 -24.861  1.00  0.00     0.209 HD
ENDBRANCH  39  40
ENDBRANCH  18  39
BRANCH   1  42
HETATM   42  C2  UNL     1     -17.632  46.142 -20.384  1.00  0.00    -0.088 C 
HETATM   43  C1  UNL     1     -16.530  45.811 -19.685  1.00  0.00     0.014 C 
HETATM   44  C3  UNL     1     -18.493  47.288 -19.923  1.00  0.00     0.043 C 
ENDBRANCH   1  42
BRANCH   4  45
HETATM   45  C8  UNL     1     -19.114  46.040 -25.111  1.00  0.00     0.149 C 
HETATM   46  O1  UNL     1     -19.428  45.709 -26.243  1.00  0.00    -0.649 OA
BRANCH  45  47
HETATM   47  O2  UNL     1     -19.187  47.338 -24.751  1.00  0.00    -0.776 OA
HETATM   48  H11 UNL     1     -19.510  47.784 -25.560  1.00  0.00     0.167 HD
ENDBRANCH  45  47
ENDBRANCH   4  45
TORSDOF 10
ENDMDL
