MODEL 1
REMARK minimizedAffinity -8.6652422
REMARK CNNscore 0.330390632
REMARK CNNaffinity 6.84556437
REMARK  9 active torsions:
REMARK  status: ('A' for Active; 'I' for Inactive)
REMARK    1  A    between atoms: C13_13  and  S1_14 
REMARK    2  A    between atoms: C25_30  and  O5_31 
REMARK    3  A    between atoms: C31_37  and  C32_38 
REMARK    4  A    between atoms: C32_38  and  O6_39 
REMARK    5  A    between atoms: C40_47  and  C41_48 
REMARK    6  A    between atoms: C40_47  and  N1_57 
REMARK    7  A    between atoms: C41_48  and  C42_49 
REMARK    8  A    between atoms: C42_49  and  C43_50 
REMARK    9  A    between atoms: C43_50  and  O7_51 
REMARK       I    between atoms: C49_59  and  N2_60 
REMARK       I    between atoms: C49_59  and  N3_61 
ROOT
HETATM    1  C1  UNL     1      -6.823  40.239 -21.400  1.00  0.00     0.010 C 
HETATM    2  C2  UNL     1      -8.163  40.961 -21.202  1.00  0.00    -0.010 C 
HETATM    3  C3  UNL     1      -8.476  41.060 -19.670  1.00  0.00     0.009 C 
HETATM    4  C4  UNL     1      -8.687  42.484 -19.118  1.00  0.00     0.039 C 
HETATM    5  C5  UNL     1      -7.690  43.452 -19.699  1.00  0.00    -0.049 C 
HETATM    6  C6  UNL     1      -7.287  44.616 -19.048  1.00  0.00     0.044 C 
HETATM    7  C7  UNL     1      -6.481  45.521 -19.748  1.00  0.00     0.072 C 
HETATM    8  C8  UNL     1      -5.801  45.131 -20.896  1.00  0.00     0.037 C 
HETATM    9  C9  UNL     1      -6.229  43.989 -21.557  1.00  0.00     0.011 C 
HETATM   10  C10 UNL     1      -7.306  43.263 -21.035  1.00  0.00    -0.047 C 
HETATM   11  C11 UNL     1      -8.217  42.352 -21.858  1.00  0.00     0.024 C 
HETATM   12  C12 UNL     1      -8.035  42.546 -23.377  1.00  0.00     0.033 C 
HETATM   13  C13 UNL     1      -9.201  42.240 -24.350  1.00  0.00     0.139 C 
HETATM   14  C14 UNL     1     -10.668  42.772 -24.050  1.00  0.00     0.038 C 
HETATM   15  C15 UNL     1     -11.560  42.584 -25.301  1.00  0.00    -0.014 C 
HETATM   16  C16 UNL     1     -12.680  43.288 -25.566  1.00  0.00    -0.050 C 
HETATM   17  C17 UNL     1     -13.212  44.199 -24.517  1.00  0.00     0.042 C 
HETATM   18  C18 UNL     1     -12.020  45.098 -24.240  1.00  0.00     0.001 C 
HETATM   19  C19 UNL     1     -11.459  45.692 -25.576  1.00  0.00     0.038 C 
HETATM   20  C20 UNL     1     -12.530  45.966 -26.679  1.00  0.00     0.130 C 
HETATM   21  O4  UNL     1     -13.123  44.860 -27.399  1.00  0.00    -0.371 OA
HETATM   22  C21 UNL     1     -13.282  43.507 -26.930  1.00  0.00     0.185 C 
HETATM   23  C22 UNL     1     -12.856  42.482 -27.994  1.00  0.00    -0.006 A 
HETATM   24  C23 UNL     1     -13.485  41.218 -27.966  1.00  0.00     0.014 A 
HETATM   25  C24 UNL     1     -13.081  40.190 -28.818  1.00  0.00     0.037 A 
HETATM   26  C25 UNL     1     -12.036  40.406 -29.706  1.00  0.00     0.067 A 
HETATM   27  C26 UNL     1     -11.402  41.641 -29.771  1.00  0.00     0.057 A 
HETATM   28  C27 UNL     1     -11.806  42.676 -28.925  1.00  0.00     0.029 A 
HETATM   29  C28 UNL     1     -11.121  43.928 -29.016  1.00  0.00    -0.066 C 
HETATM   30  C29 UNL     1     -10.776  45.072 -28.899  1.00  0.00    -0.101 C 
HETATM   31  C30 UNL     1     -10.668  46.468 -28.466  1.00  0.00     0.103 C 
HETATM   32  C31 UNL     1     -11.987  46.939 -27.791  1.00  0.00     0.049 C 
HETATM   33  C33 UNL     1     -10.980  44.231 -23.424  1.00  0.00     0.030 C 
HETATM   34  C34 UNL     1     -10.013  45.167 -22.714  1.00  0.00    -0.057 A 
HETATM   35  C35 UNL     1      -8.973  45.855 -23.340  1.00  0.00     0.005 A 
HETATM   36  C36 UNL     1      -8.127  46.720 -22.610  1.00  0.00     0.010 A 
HETATM   37  C37 UNL     1      -8.307  46.934 -21.229  1.00  0.00    -0.007 A 
HETATM   38  C38 UNL     1      -9.432  46.333 -20.640  1.00  0.00     0.096 A 
HETATM   39  C39 UNL     1     -10.256  45.465 -21.361  1.00  0.00     0.092 A 
HETATM   40  C40 UNL     1      -7.319  47.727 -20.292  1.00  0.00     0.168 C 
HETATM   41  O8  UNL     1      -6.538  46.841 -19.385  1.00  0.00    -0.316 OA
HETATM   42 NA1  UNL     1      -9.070  45.561 -22.886  1.00  0.00    -0.355 Na
ATOM     43 1HA1 UNL     1      -8.903  45.744 -23.876  1.00  0.00     0.103 HD
ATOM     44 2HA1 UNL     1      -8.485  45.112 -23.591  1.00  0.00     0.103 HD
ENDROOT
BRANCH  40  45
HETATM   45  C41 UNL     1      -6.238  48.564 -21.059  1.00  0.00     0.070 C 
BRANCH  45  46
HETATM   46  C42 UNL     1      -6.702  49.652 -22.053  1.00  0.00     0.043 C 
BRANCH  46  47
HETATM   47  C43 UNL     1      -5.955  49.935 -23.380  1.00  0.00     0.058 C 
HETATM   48  C44 UNL     1      -4.961  48.847 -23.800  1.00  0.00     0.038 C 
HETATM   49  C45 UNL     1      -4.354  49.110 -25.184  1.00  0.00     0.003 C 
HETATM   50  C46 UNL     1      -3.921  50.557 -25.401  1.00  0.00     0.000 C 
HETATM   51  C47 UNL     1      -3.984  51.409 -24.140  1.00  0.00     0.003 C 
HETATM   52  C48 UNL     1      -5.350  51.350 -23.455  1.00  0.00     0.038 C 
BRANCH  47  53
HETATM   53  O7  UNL     1      -6.993  49.910 -24.402  1.00  0.00    -0.390 OA
HETATM   54  H44 UNL     1      -7.391  49.022 -24.385  1.00  0.00     0.210 HD
ENDBRANCH  47  53
ENDBRANCH  46  47
ENDBRANCH  45  46
ENDBRANCH  40  45
BRANCH  40  55
HETATM   55  N1  UNL     1      -8.119  48.684 -19.492  1.00  0.00    -0.336 N 
HETATM   56  C49 UNL     1      -8.137  48.762 -18.223  1.00  0.00     0.124 C 
HETATM   57  N2  UNL     1      -8.908  49.707 -17.639  1.00  0.00    -0.279 NA
HETATM   58  N3  UNL     1      -7.509  48.056 -17.258  1.00  0.00    -0.279 NA
HETATM   59  H55 UNL     1      -9.483  50.163 -18.345  1.00  0.00     0.126 HD
HETATM   60  H56 UNL     1      -9.492  49.325 -16.906  1.00  0.00     0.126 HD
HETATM   61  H57 UNL     1      -7.243  48.663 -16.491  1.00  0.00     0.126 HD
HETATM   62  H58 UNL     1      -6.681  47.573 -17.583  1.00  0.00     0.126 HD
ATOM     63  H1  UNL     1      -8.708  49.339 -20.005  1.00  0.00     0.165 HD
ENDBRANCH  40  55
BRANCH  13  64
HETATM   64  S1  UNL     1      -9.205  40.412 -24.718  1.00  0.00     0.106 S 
HETATM   65  O1  UNL     1      -9.745  40.304 -26.070  1.00  0.00    -0.595 OA
HETATM   66  O2  UNL     1      -7.802  40.008 -24.655  1.00  0.00    -0.595 OA
HETATM   67  O3  UNL     1     -10.046  39.835 -23.669  1.00  0.00    -0.595 OA
ENDBRANCH  13  64
BRANCH  32  68
HETATM   68  C32 UNL     1     -11.811  48.363 -27.251  1.00  0.00     0.172 C 
BRANCH  68  69
HETATM   69  O6  UNL     1     -10.432  48.718 -27.275  1.00  0.00    -0.400 OA
HETATM   70  H34 UNL     1     -10.360  49.614 -26.904  1.00  0.00     0.209 HD
ENDBRANCH  68  69
ENDBRANCH  32  68
BRANCH  26  71
HETATM   71  O5  UNL     1     -11.637  39.365 -30.493  1.00  0.00    -0.361 OA
HETATM   72  H27 UNL     1     -10.711  39.540 -30.746  1.00  0.00     0.217 HD
ENDBRANCH  26  71
TORSDOF 9
ENDMDL
