MODEL 1
REMARK minimizedAffinity -9.55654335
REMARK  9 active torsions:
REMARK  status: ('A' for Active; 'I' for Inactive)
REMARK    1  A    between atoms: C2_2  and  C3_3 
REMARK    2  A    between atoms: C2_2  and  C9_12 
REMARK    3  A    between atoms: C3_3  and  C4_4 
REMARK    4  A    between atoms: C4_4  and  C5_5 
REMARK    5  A    between atoms: C5_5  and  O1_6 
REMARK    6  A    between atoms: C5_5  and  C6_7 
REMARK    7  A    between atoms: C6_7  and  O2_9 
REMARK    8  A    between atoms: C6_7  and  C8_10 
REMARK    9  A    between atoms: C8_10  and  O3_11 
ROOT
HETATM    1  C9  UNL     1      -2.334   6.437  12.742  1.00  0.00    -0.002 C 
HETATM    2  C10 UNL     1      -2.349   7.439  13.928  1.00  0.00     0.007 C 
HETATM    3  C11 UNL     1      -0.990   8.164  13.926  1.00  0.00     0.015 C 
HETATM    4  C12 UNL     1      -0.399   7.901  12.528  1.00  0.00    -0.005 C 
HETATM    5  C13 UNL     1      -1.066   8.921  11.550  1.00  0.00     0.021 C 
HETATM    6  C14 UNL     1       1.097   8.055  12.271  1.00  0.00    -0.000 C 
HETATM    7  C15 UNL     1       1.730   7.309  11.326  1.00  0.00    -0.060 C 
HETATM    8  C16 UNL     1       0.953   6.252  10.519  1.00  0.00     0.036 C 
HETATM    9  C17 UNL     1      -0.536   6.032  10.866  1.00  0.00     0.015 C 
HETATM   10  C18 UNL     1      -0.831   6.393  12.327  1.00  0.00    -0.028 C 
HETATM   11  C19 UNL     1      -0.049   5.410  13.246  1.00  0.00     0.016 C 
HETATM   12  C20 UNL     1       3.240   7.456  10.990  1.00  0.00    -0.014 C 
HETATM   13  C21 UNL     1       3.329   8.231   9.655  1.00  0.00     0.020 C 
HETATM   14  C22 UNL     1       3.900   6.056  10.821  1.00  0.00     0.021 C 
HETATM   15  C23 UNL     1       5.413   5.989  11.010  1.00  0.00     0.080 C 
HETATM   16  C24 UNL     1       6.076   7.340  10.974  1.00  0.00     0.135 C 
HETATM   17  O4  UNL     1       7.067   7.527  10.268  1.00  0.00    -0.297 OA
HETATM   18  C25 UNL     1       5.522   8.415  11.917  1.00  0.00     0.018 C 
HETATM   19  C26 UNL     1       5.857   9.808  11.343  1.00  0.00     0.023 C 
HETATM   20  C27 UNL     1       6.284   8.269  13.249  1.00  0.00     0.023 C 
HETATM   21  C28 UNL     1       3.989   8.178  12.158  1.00  0.00     0.020 C 
HETATM   22  C29 UNL     1       3.250   9.445  12.589  1.00  0.00     0.090 C 
HETATM   23  C30 UNL     1       1.831   9.141  12.993  1.00  0.00     0.157 C 
HETATM   24  O5  UNL     1       1.281   9.826  13.853  1.00  0.00    -0.293 OA
ENDROOT
BRANCH   1  25
HETATM   25  C2  UNL     1      -3.193   5.161  12.997  1.00  0.00    -0.014 C 
HETATM   26  C1  UNL     1      -3.239   4.122  11.868  1.00  0.00     0.010 C 
BRANCH  25  27
HETATM   27  C3  UNL     1      -4.619   5.527  13.466  1.00  0.00     0.007 C 
BRANCH  27  28
HETATM   28  C4  UNL     1      -5.685   4.423  13.360  1.00  0.00     0.035 C 
BRANCH  28  29
HETATM   29  C5  UNL     1      -7.147   4.771  13.700  1.00  0.00     0.154 C 
BRANCH  29  30
HETATM   30  O1  UNL     1      -7.972   3.607  13.548  1.00  0.00    -0.392 OA
HETATM   31  H10 UNL     1      -7.802   3.067  14.346  1.00  0.00     0.210 HD
ENDBRANCH  29  30
BRANCH  29  32
HETATM   32  C6  UNL     1      -7.439   5.415  15.087  1.00  0.00     0.101 C 
HETATM   33  C7  UNL     1      -6.188   5.999  15.741  1.00  0.00     0.051 C 
BRANCH  32  34
HETATM   34  O2  UNL     1      -7.978   4.396  15.955  1.00  0.00    -0.385 OA
HETATM   35  H14 UNL     1      -8.933   4.593  16.051  1.00  0.00     0.210 HD
ENDBRANCH  32  34
BRANCH  32  36
HETATM   36  C8  UNL     1      -8.513   6.524  14.947  1.00  0.00     0.204 C 
BRANCH  36  37
HETATM   37  O3  UNL     1      -9.510   6.381  15.961  1.00  0.00    -0.398 OA
HETATM   38  H17 UNL     1      -9.869   5.472  15.880  1.00  0.00     0.209 HD
ENDBRANCH  36  37
ENDBRANCH  32  36
ENDBRANCH  29  32
ENDBRANCH  28  29
ENDBRANCH  27  28
ENDBRANCH  25  27
ENDBRANCH   1  25
TORSDOF 9
ENDMDL
