MODEL 1
REMARK minimizedAffinity -10.4248085
REMARK CNNscore 0.503628612
REMARK CNNaffinity 6.9231739
REMARK  15 active torsions:
REMARK  status: ('A' for Active; 'I' for Inactive)
REMARK    1  A    between atoms: C19_20  and  O2_21 
REMARK    2  A    between atoms: C19_20  and  C20_22 
REMARK    3  A    between atoms: C20_22  and  C21_24 
REMARK    4  A    between atoms: C21_24  and  O4_25 
REMARK    5  A    between atoms: O4_25  and  C22_26 
REMARK    6  A    between atoms: C22_26  and  C23_28 
REMARK    7  A    between atoms: C23_28  and  C24_29 
REMARK    8  A    between atoms: C24_29  and  C25_30 
REMARK       I    between atoms: C25_30  and  N1_32 
REMARK    9  A    between atoms: N1_32  and  C26_33 
REMARK   10  A    between atoms: C26_33  and  C27_34 
REMARK       I    between atoms: C27_34  and  N2_36 
REMARK   11  A    between atoms: N2_36  and  C28_37 
REMARK   12  A    between atoms: C28_37  and  C29_38 
REMARK   13  A    between atoms: C28_37  and  C38_48 
REMARK   14  A    between atoms: C29_38  and  C30_39 
REMARK   15  A    between atoms: C38_48  and  O9_50 
ROOT
HETATM    1  C22 UNL     1       0.760  13.289  15.797  1.00  0.00     0.259 C 
HETATM    2  O5  UNL     1       1.297  13.515  14.719  1.00  0.00    -0.265 OA
ENDROOT
BRANCH   1   3
HETATM    3  O4  UNL     1       0.061  12.156  16.099  1.00  0.00    -0.314 OA
BRANCH   3   4
HETATM    4  C21 UNL     1       0.159  11.115  15.126  1.00  0.00     0.260 C 
BRANCH   4   5
HETATM    5  C20 UNL     1      -1.105  10.964  14.276  1.00  0.00     0.185 C 
HETATM    6  O3  UNL     1      -1.849  11.928  14.063  1.00  0.00    -0.292 OA
BRANCH   5   7
HETATM    7  C19 UNL     1      -1.396   9.551  13.706  1.00  0.00     0.128 C 
HETATM    8  C14 UNL     1      -2.691   8.849  14.241  1.00  0.00    -0.002 C 
HETATM    9  C13 UNL     1      -4.031   9.256  13.597  1.00  0.00     0.013 C 
HETATM   10  C15 UNL     1      -2.824   9.020  15.783  1.00  0.00     0.019 C 
HETATM   11  C16 UNL     1      -2.379   7.384  13.818  1.00  0.00     0.002 C 
HETATM   12  C12 UNL     1      -5.172   8.282  13.962  1.00  0.00     0.007 C 
HETATM   13  C11 UNL     1      -4.816   6.817  13.612  1.00  0.00     0.002 C 
HETATM   14  C2  UNL     1      -5.939   5.763  13.895  1.00  0.00    -0.016 C 
HETATM   15  C10 UNL     1      -3.461   6.391  14.267  1.00  0.00    -0.004 C 
HETATM   16  C1  UNL     1      -6.147   5.541  15.412  1.00  0.00     0.020 C 
HETATM   17  C3  UNL     1      -7.285   6.198  13.258  1.00  0.00     0.022 C 
HETATM   18  C7  UNL     1      -5.511   4.446  13.241  1.00  0.00    -0.068 C 
HETATM   19  C4  UNL     1      -8.364   5.118  13.319  1.00  0.00     0.084 C 
HETATM   20  C5  UNL     1      -7.858   3.766  12.872  1.00  0.00     0.149 C 
HETATM   21  O1  UNL     1      -8.624   2.851  12.579  1.00  0.00    -0.293 OA
HETATM   22  C6  UNL     1      -6.397   3.537  12.795  1.00  0.00     0.053 C 
HETATM   23  C8  UNL     1      -4.034   4.225  12.990  1.00  0.00     0.035 C 
HETATM   24  C9  UNL     1      -3.114   4.914  13.995  1.00  0.00     0.010 C 
HETATM   25  C17 UNL     1      -0.942   7.181  14.297  1.00  0.00     0.009 C 
HETATM   26  C18 UNL     1      -0.274   8.563  14.129  1.00  0.00     0.047 C 
BRANCH   7  27
HETATM   27  O2  UNL     1      -1.374   9.563  12.273  1.00  0.00    -0.381 OA
HETATM   28  H27 UNL     1      -2.195   9.949  11.931  1.00  0.00     0.211 HD
ENDBRANCH   7  27
ENDBRANCH   5   7
ENDBRANCH   4   5
ENDBRANCH   3   4
ENDBRANCH   1   3
BRANCH   1  29
HETATM   29  C23 UNL     1       0.782  14.188  17.013  1.00  0.00     0.120 C 
BRANCH  29  30
HETATM   30  C24 UNL     1       2.100  14.122  17.777  1.00  0.00     0.112 C 
BRANCH  30  31
HETATM   31  C25 UNL     1       1.993  13.285  19.037  1.00  0.00     0.218 C 
HETATM   32  O6  UNL     1       2.673  13.477  20.037  1.00  0.00    -0.274 OA
HETATM   33  N1  UNL     1       1.060  12.275  18.936  1.00  0.00    -0.352 N 
HETATM   34  H34 UNL     1       0.548  12.138  18.071  1.00  0.00     0.162 HD
BRANCH  33  35
HETATM   35  C26 UNL     1       0.844  11.323  20.022  1.00  0.00     0.225 C 
BRANCH  35  36
HETATM   36  C27 UNL     1       2.052  10.403  20.263  1.00  0.00     0.236 C 
HETATM   37  O7  UNL     1       2.512   9.676  19.390  1.00  0.00    -0.272 OA
HETATM   38  N2  UNL     1       2.626  10.543  21.508  1.00  0.00    -0.345 N 
HETATM   39  H37 UNL     1       2.023  10.998  22.190  1.00  0.00     0.163 HD
BRANCH  38  40
HETATM   40  C28 UNL     1       3.420   9.453  22.104  1.00  0.00     0.186 C 
BRANCH  40  41
HETATM   41  C29 UNL     1       4.430  10.016  23.105  1.00  0.00     0.077 C 
BRANCH  41  42
HETATM   42  C30 UNL     1       4.515  11.510  23.076  1.00  0.00    -0.028 A 
HETATM   43  C31 UNL     1       3.460  12.400  23.068  1.00  0.00     0.096 A 
HETATM   44  N3  UNL     1       3.970  13.671  23.048  1.00  0.00    -0.365 N 
HETATM   45  C32 UNL     1       5.344  13.634  23.033  1.00  0.00     0.042 A 
HETATM   46  H42 UNL     1       3.420  14.519  23.052  1.00  0.00     0.165 HD
HETATM   47  C33 UNL     1       6.278  14.677  23.013  1.00  0.00     0.030 A 
HETATM   48  C37 UNL     1       5.716  12.289  23.051  1.00  0.00    -0.002 A 
HETATM   49  C34 UNL     1       7.633  14.333  23.017  1.00  0.00     0.002 A 
HETATM   50  C35 UNL     1       8.036  13.000  23.041  1.00  0.00     0.001 A 
HETATM   51  C36 UNL     1       7.089  11.969  23.058  1.00  0.00     0.014 A 
ENDBRANCH  41  42
ENDBRANCH  40  41
BRANCH  40  52
HETATM   52  C38 UNL     1       2.422   8.524  22.821  1.00  0.00     0.163 C 
HETATM   53  O8  UNL     1       1.735   7.646  22.329  1.00  0.00    -0.648 OA
BRANCH  52  54
HETATM   54  O9  UNL     1       2.405   8.760  24.161  1.00  0.00    -0.775 OA
HETATM   55  H47 UNL     1       1.616   8.291  24.538  1.00  0.00     0.167 HD
ENDBRANCH  52  54
ENDBRANCH  40  52
ENDBRANCH  38  40
ENDBRANCH  35  36
ENDBRANCH  33  35
ENDBRANCH  30  31
ENDBRANCH  29  30
ENDBRANCH   1  29
TORSDOF 15
ENDMDL
