MODEL 1
REMARK minimizedAffinity -8.36034489
REMARK CNNscore 0.258497357
REMARK CNNaffinity 6.43688965
REMARK  7 active torsions:
REMARK  status: ('A' for Active; 'I' for Inactive)
REMARK    1  A    between atoms: C2_2  and  C3_3 
REMARK    2  A    between atoms: C9_10  and  O1_11 
REMARK    3  A    between atoms: C18_22  and  C19_23 
REMARK    4  A    between atoms: C33_39  and  C34_40 
REMARK    5  A    between atoms: C34_40  and  O2_41 
REMARK    6  A    between atoms: C35_42  and  C38_45 
REMARK    7  A    between atoms: C39_46  and  O3_47 
ROOT
HETATM    1  C19 UNL     1       2.104  10.802  18.208  1.00  0.00    -0.003 C 
HETATM    2  C20 UNL     1       2.622  10.050  19.204  1.00  0.00     0.102 C 
HETATM    3  N3  UNL     1       3.258  10.565  20.323  1.00  0.00    -0.349 N 
HETATM    4  C21 UNL     1       3.024  10.139  21.651  1.00  0.00     0.041 A 
HETATM    5  C22 UNL     1       2.520   8.912  22.069  1.00  0.00     0.030 A 
HETATM    6  C23 UNL     1       2.324   8.683  23.430  1.00  0.00     0.002 A 
HETATM    7  C24 UNL     1       2.647   9.665  24.372  1.00  0.00     0.001 A 
HETATM    8  C25 UNL     1       3.162  10.891  23.959  1.00  0.00     0.010 A 
HETATM    9  C26 UNL     1       3.334  11.124  22.596  1.00  0.00    -0.018 A 
HETATM   10  C27 UNL     1       3.866  12.356  21.904  1.00  0.00     0.041 C 
HETATM   11  C28 UNL     1       5.389  12.494  22.133  1.00  0.00     0.046 C 
HETATM   12  C29 UNL     1       5.579  13.737  22.971  1.00  0.00     0.239 C 
HETATM   13  N4  UNL     1       4.425  14.662  22.594  1.00  0.00    -0.062 N 
HETATM   14  C30 UNL     1       4.214  15.662  23.735  1.00  0.00     0.273 C 
HETATM   15  C31 UNL     1       4.671  15.452  21.306  1.00  0.00     0.271 C 
HETATM   16  C32 UNL     1       4.074  14.896  20.020  1.00  0.00    -0.051 C 
HETATM   17  C33 UNL     1       4.824  15.053  18.901  1.00  0.00     0.004 C 
HETATM   18  C35 UNL     1       2.650  14.297  20.088  1.00  0.00     0.027 C 
HETATM   19  C36 UNL     1       2.195  14.396  21.554  1.00  0.00     0.044 C 
HETATM   20  C37 UNL     1       3.234  13.691  22.431  1.00  0.00     0.206 C 
HETATM   21  C38 UNL     1       2.453  12.781  19.789  1.00  0.00     0.052 C 
HETATM   22  C39 UNL     1       2.198  12.329  18.343  1.00  0.00     0.160 C 
HETATM   23  C40 UNL     1       3.592  11.991  20.406  1.00  0.00     0.112 C 
ENDROOT
BRANCH   1  24
HETATM   24  C18 UNL     1       1.434  10.202  17.024  1.00  0.00    -0.016 C 
HETATM   25  C3  UNL     1      -0.034  10.013  16.844  1.00  0.00    -0.032 C 
HETATM   26  C4  UNL     1      -0.467   9.180  15.877  1.00  0.00     0.099 C 
HETATM   27  N1  UNL     1       0.357   8.544  14.948  1.00  0.00    -0.354 N 
HETATM   28  C5  UNL     1      -0.267   7.961  13.727  1.00  0.00     0.133 C 
HETATM   29  C16 UNL     1       1.713   8.949  14.895  1.00  0.00     0.062 C 
HETATM   30  C6  UNL     1       0.735   7.184  12.867  1.00  0.00     0.062 C 
HETATM   31  C7  UNL     1       1.990   7.971  12.678  1.00  0.00    -0.012 C 
HETATM   32  C8  UNL     1       2.793   8.150  11.629  1.00  0.00     0.033 A 
HETATM   33  C15 UNL     1       2.482   8.732  13.811  1.00  0.00     0.067 C 
HETATM   34  C9  UNL     1       2.833   7.731  10.258  1.00  0.00     0.081 A 
HETATM   35  C14 UNL     1       3.857   8.983  12.226  1.00  0.00     0.046 A 
HETATM   36  C11 UNL     1       3.862   8.168   9.496  1.00  0.00     0.038 A 
HETATM   37  C12 UNL     1       4.927   9.001  10.048  1.00  0.00     0.005 A 
HETATM   38  C13 UNL     1       4.963   9.390  11.335  1.00  0.00     0.030 A 
HETATM   39  N2  UNL     1       3.709   9.273  13.489  1.00  0.00    -0.353 N 
ATOM     40  H2  UNL     1       4.352   9.781  14.097  1.00  0.00     0.166 HD
HETATM   41  C17 UNL     1       2.223   9.681  16.052  1.00  0.00     0.044 C 
BRANCH  25  42
HETATM   42  C2  UNL     1      -1.058  10.785  17.643  1.00  0.00     0.036 C 
HETATM   43  C1  UNL     1      -2.423  10.092  17.676  1.00  0.00     0.010 C 
ENDBRANCH  25  42
BRANCH  34  44
HETATM   44  O1  UNL     1       1.774   6.942   9.878  1.00  0.00    -0.355 OA
HETATM   45  C10 UNL     1       0.713   7.561   9.165  1.00  0.00     0.210 C 
ENDBRANCH  34  44
ENDBRANCH   1  24
BRANCH  22  46
HETATM   46  O3  UNL     1       1.014  13.003  17.926  1.00  0.00    -0.390 OA
HETATM   47  H42 UNL     1       0.377  12.324  17.618  1.00  0.00     0.210 HD
ENDBRANCH  22  46
BRANCH  17  48
HETATM   48  C34 UNL     1       4.508  14.775  17.477  1.00  0.00     0.191 C 
BRANCH  48  49
HETATM   49  O2  UNL     1       3.705  15.862  17.051  1.00  0.00    -0.397 OA
HETATM   50  H35 UNL     1       2.896  15.500  16.643  1.00  0.00     0.209 HD
ENDBRANCH  48  49
ENDBRANCH  17  48
TORSDOF 7
ENDMDL
