MODEL 1
REMARK minimizedAffinity -7.57274961
REMARK CNNscore 0.762715161
REMARK CNNaffinity 7.14242983
REMARK  5 active torsions:
REMARK  status: ('A' for Active; 'I' for Inactive)
REMARK    1  A    between atoms: C2_2  and  C3_3 
REMARK    2  A    between atoms: C2_2  and  C9_12 
REMARK    3  A    between atoms: C3_3  and  C4_4 
REMARK    4  A    between atoms: C6_6  and  C7_7 
REMARK    5  A    between atoms: C7_7  and  O1_8 
ROOT
HETATM    1  C9  UNL     1      -1.888  53.336  -9.566  1.00  0.00    -0.002 C 
HETATM    2  C10 UNL     1      -1.936  52.574  -8.208  1.00  0.00     0.007 C 
HETATM    3  C11 UNL     1      -0.558  52.739  -7.538  1.00  0.00     0.015 C 
HETATM    4  C12 UNL     1       0.146  53.844  -8.351  1.00  0.00    -0.013 C 
HETATM    5  C13 UNL     1      -0.364  55.201  -7.768  1.00  0.00     0.021 C 
HETATM    6  C14 UNL     1       1.668  53.915  -8.306  1.00  0.00    -0.070 C 
HETATM    7  C15 UNL     1       2.367  53.528  -7.229  1.00  0.00    -0.022 C 
HETATM    8  C16 UNL     1       3.840  53.685  -7.077  1.00  0.00     0.034 C 
HETATM    9  C17 UNL     1       4.642  54.231  -8.300  1.00  0.00     0.013 C 
HETATM   10  C18 UNL     1       6.022  54.818  -7.796  1.00  0.00     0.018 C 
HETATM   11  C19 UNL     1       7.071  54.986  -8.913  1.00  0.00     0.023 C 
HETATM   12  C20 UNL     1       6.677  53.879  -6.749  1.00  0.00     0.023 C 
HETATM   13  C21 UNL     1       5.760  56.191  -7.156  1.00  0.00     0.135 C 
HETATM   14  O4  UNL     1       6.340  56.550  -6.130  1.00  0.00    -0.297 OA
HETATM   15  C22 UNL     1       4.847  57.158  -7.889  1.00  0.00     0.080 C 
HETATM   16  C23 UNL     1       3.546  56.518  -8.368  1.00  0.00     0.017 C 
HETATM   17  C24 UNL     1       3.760  55.212  -9.172  1.00  0.00    -0.031 C 
HETATM   18  C25 UNL     1       4.443  55.551 -10.521  1.00  0.00     0.016 C 
HETATM   19  C26 UNL     1       2.387  54.484  -9.525  1.00  0.00     0.024 C 
HETATM   20  C27 UNL     1       1.431  55.300 -10.441  1.00  0.00     0.010 C 
HETATM   21  C28 UNL     1       0.050  54.668 -10.739  1.00  0.00     0.011 C 
HETATM   22  C29 UNL     1      -0.352  53.515  -9.801  1.00  0.00    -0.029 C 
HETATM   23  C30 UNL     1       0.223  52.177 -10.364  1.00  0.00     0.016 C 
ENDROOT
BRANCH   1  24
HETATM   24  C2  UNL     1      -2.765  52.654 -10.656  1.00  0.00    -0.011 C 
HETATM   25  C1  UNL     1      -3.860  53.575 -11.202  1.00  0.00     0.010 C 
BRANCH  24  26
HETATM   26  C3  UNL     1      -3.370  51.301 -10.177  1.00  0.00     0.041 C 
BRANCH  26  27
HETATM   27  C4  UNL     1      -4.607  50.808 -10.943  1.00  0.00     0.156 A 
HETATM   28  C5  UNL     1      -5.650  50.272 -10.040  1.00  0.00     0.021 A 
HETATM   29  C6  UNL     1      -5.876  48.979 -10.273  1.00  0.00     0.039 A 
HETATM   30  C8  UNL     1      -4.981  48.593 -11.364  1.00  0.00     0.291 A 
HETATM   31  O2  UNL     1      -4.897  47.478 -11.843  1.00  0.00    -0.260 OA
HETATM   32  O3  UNL     1      -4.267  49.682 -11.759  1.00  0.00    -0.308 OA
BRANCH  29  33
HETATM   33  C7  UNL     1      -6.808  48.004  -9.675  1.00  0.00     0.208 C 
BRANCH  33  34
HETATM   34  O1  UNL     1      -7.113  48.380  -8.335  1.00  0.00    -0.396 OA
HETATM   35  H11 UNL     1      -7.771  47.741  -8.011  1.00  0.00     0.209 HD
ENDBRANCH  33  34
ENDBRANCH  29  33
ENDBRANCH  26  27
ENDBRANCH  24  26
ENDBRANCH   1  24
TORSDOF 5
ENDMDL
