MODEL 1
REMARK minimizedAffinity -8.58522797
REMARK CNNscore 0.628030479
REMARK CNNaffinity 6.97190428
REMARK  11 active torsions:
REMARK  status: ('A' for Active; 'I' for Inactive)
REMARK    1  A    between atoms: C3_4  and  O2_5 
REMARK    2  A    between atoms: O2_5  and  C4_6 
REMARK    3  A    between atoms: C7_9  and  C8_10 
REMARK    4  A    between atoms: N1_11  and  C9_13 
REMARK    5  A    between atoms: C9_13  and  C10_14 
REMARK    6  A    between atoms: C10_14  and  C11_15 
REMARK    7  A    between atoms: C22_26  and  C23_27 
REMARK    8  A    between atoms: C29_35  and  O5_36 
REMARK    9  A    between atoms: C33_40  and  O6_41 
REMARK   10  A    between atoms: C36_44  and  O7_45 
REMARK   11  A    between atoms: C37_46  and  O8_47 
ROOT
HETATM    1  C4  UNL     1      -2.406  52.462 -10.211  1.00  0.00     0.127 C 
HETATM    2  C5  UNL     1      -1.876  52.154  -8.820  1.00  0.00     0.033 C 
HETATM    3  C6  UNL     1      -0.353  52.246  -8.694  1.00  0.00     0.021 C 
HETATM    4  C7  UNL     1       0.370  53.119  -9.772  1.00  0.00     0.026 C 
HETATM    5  C17 UNL     1       1.754  53.604  -9.162  1.00  0.00     0.009 C 
HETATM    6  C18 UNL     1       3.034  53.055  -9.850  1.00  0.00     0.007 C 
HETATM    7  C19 UNL     1       4.343  53.523  -9.177  1.00  0.00     0.013 C 
HETATM    8  C20 UNL     1       4.377  55.051  -9.004  1.00  0.00    -0.005 C 
HETATM    9  C21 UNL     1       4.459  55.688 -10.432  1.00  0.00     0.019 C 
HETATM   10  C22 UNL     1       5.557  55.675  -8.190  1.00  0.00     0.028 C 
HETATM   11  C27 UNL     1       4.936  56.954  -7.550  1.00  0.00     0.013 C 
HETATM   12  C28 UNL     1       3.434  56.967  -7.906  1.00  0.00     0.040 C 
HETATM   13  C29 UNL     1       3.126  55.503  -8.199  1.00  0.00     0.070 C 
HETATM   14  C30 UNL     1       1.824  55.150  -8.947  1.00  0.00     0.026 C 
HETATM   15  C31 UNL     1       0.551  55.620  -8.233  1.00  0.00     0.011 C 
HETATM   16  C32 UNL     1      -0.734  55.313  -9.017  1.00  0.00     0.039 C 
HETATM   17  C33 UNL     1      -0.561  54.303 -10.177  1.00  0.00     0.073 C 
HETATM   18  C34 UNL     1      -1.944  53.839 -10.700  1.00  0.00     0.071 C 
ENDROOT
BRANCH   1  19
HETATM   19  O2  UNL     1      -3.836  52.387 -10.146  1.00  0.00    -0.356 OA
BRANCH  19  20
HETATM   20  C3  UNL     1      -4.389  51.215 -10.747  1.00  0.00     0.263 C 
HETATM   21  O1  UNL     1      -4.894  50.336  -9.743  1.00  0.00    -0.354 OA
HETATM   22  C2  UNL     1      -5.012  48.956 -10.101  1.00  0.00     0.151 C 
HETATM   23  C1  UNL     1      -3.947  48.158  -9.351  1.00  0.00     0.042 C 
HETATM   24  C37 UNL     1      -5.028  48.720 -11.620  1.00  0.00     0.175 C 
HETATM   25  C36 UNL     1      -3.791  49.331 -12.296  1.00  0.00     0.154 C 
HETATM   26  C35 UNL     1      -3.280  50.567 -11.568  1.00  0.00     0.095 C 
BRANCH  24  27
HETATM   27  O8  UNL     1      -5.122  47.338 -11.975  1.00  0.00    -0.390 OA
HETATM   28  H55 UNL     1      -5.871  46.954 -11.481  1.00  0.00     0.210 HD
ENDBRANCH  24  27
BRANCH  25  29
HETATM   29  O7  UNL     1      -2.738  48.364 -12.380  1.00  0.00    -0.393 OA
HETATM   30  H53 UNL     1      -3.195  47.508 -12.511  1.00  0.00     0.210 HD
ENDBRANCH  25  29
ENDBRANCH  19  20
ENDBRANCH   1  19
BRANCH  17  31
HETATM   31  O6  UNL     1       0.049  55.041 -11.259  1.00  0.00    -0.389 OA
HETATM   32  H47 UNL     1      -0.575  55.737 -11.534  1.00  0.00     0.210 HD
ENDBRANCH  17  31
BRANCH   4  33
HETATM   33  C8  UNL     1       0.637  52.314 -11.055  1.00  0.00     0.068 C 
HETATM   34  N1  UNL     1       0.601  51.026 -11.082  1.00  0.00    -0.401 N 
ATOM     35  H1  UNL     1       0.390  50.466 -10.256  1.00  0.00     0.158 HD
BRANCH  34  36
HETATM   36  C9  UNL     1       0.886  50.426 -12.392  1.00  0.00     0.123 C 
BRANCH  36  37
HETATM   37  C10 UNL     1       2.358  50.671 -12.738  1.00  0.00     0.053 C 
BRANCH  37  38
HETATM   38  C11 UNL     1       2.544  51.266 -14.116  1.00  0.00    -0.082 C 
HETATM   39  C12 UNL     1       3.769  51.508 -14.621  1.00  0.00    -0.024 C 
HETATM   40  C13 UNL     1       4.013  52.147 -15.957  1.00  0.00     0.027 C 
HETATM   41  C14 UNL     1       2.763  52.792 -16.555  1.00  0.00     0.004 C 
HETATM   42  C15 UNL     1       1.540  51.901 -16.366  1.00  0.00     0.005 C 
HETATM   43  C16 UNL     1       1.288  51.609 -14.884  1.00  0.00     0.034 C 
ENDBRANCH  37  38
ENDBRANCH  36  37
ENDBRANCH  34  36
ENDBRANCH   4  33
BRANCH  13  44
HETATM   44  O5  UNL     1       3.103  54.838  -6.924  1.00  0.00    -0.389 OA
HETATM   45  H41 UNL     1       2.408  55.244  -6.379  1.00  0.00     0.210 HD
ENDBRANCH  13  44
BRANCH  10  46
HETATM   46  C23 UNL     1       6.316  54.818  -7.211  1.00  0.00    -0.045 A 
HETATM   47  C24 UNL     1       6.313  53.484  -7.207  1.00  0.00     0.087 A 
HETATM   48  C25 UNL     1       7.221  53.048  -6.150  1.00  0.00     0.283 A 
HETATM   49  O3  UNL     1       7.456  51.887  -5.872  1.00  0.00    -0.260 OA
HETATM   50  O4  UNL     1       7.763  54.138  -5.552  1.00  0.00    -0.314 OA
HETATM   51  C26 UNL     1       7.210  55.322  -6.141  1.00  0.00     0.213 A 
ENDBRANCH  10  46
TORSDOF 11
ENDMDL
