MODEL 1
REMARK minimizedAffinity -5.9479003
REMARK CNNscore 0.529539526
REMARK CNNaffinity 6.22024012
REMARK  18 active torsions:
REMARK  status: ('A' for Active; 'I' for Inactive)
REMARK    1  A    between atoms: C2_2  and  C3_3 
REMARK    2  A    between atoms: C2_2  and  C27_33 
REMARK    3  A    between atoms: C4_4  and  C5_5 
REMARK    4  A    between atoms: C6_6  and  C7_7 
REMARK    5  A    between atoms: C6_6  and  C10_12 
REMARK    6  A    between atoms: C7_7  and  O1_8 
REMARK    7  A    between atoms: O1_8  and  C8_9 
REMARK    8  A    between atoms: C8_9  and  C9_10 
REMARK    9  A    between atoms: C9_10  and  O2_11 
REMARK   10  A    between atoms: C14_16  and  O3_17 
REMARK   11  A    between atoms: C15_18  and  C16_19 
REMARK   12  A    between atoms: C16_19  and  C17_20 
REMARK   13  A    between atoms: C17_20  and  C18_21 
REMARK   14  A    between atoms: C18_21  and  O4_22 
REMARK   15  A    between atoms: C20_24  and  C22_26 
REMARK   16  A    between atoms: C25_30  and  O6_32 
REMARK   17  A    between atoms: C27_33  and  C28_34 
REMARK   18  A    between atoms: C28_34  and  C29_35 
ROOT
HETATM    1  C10 UNL     1     -15.322  -4.011  13.389  1.00  0.00     0.046 C 
HETATM    2  C11 UNL     1     -16.623  -4.356  12.651  1.00  0.00     0.013 C 
HETATM    3  C12 UNL     1     -17.612  -3.363  13.248  1.00  0.00     0.017 C 
HETATM    4  C13 UNL     1     -16.859  -1.997  13.269  1.00  0.00     0.024 C 
HETATM    5  C14 UNL     1     -15.433  -2.484  13.717  1.00  0.00     0.138 C 
HETATM    6  C15 UNL     1     -17.478  -0.977  14.323  1.00  0.00     0.029 C 
HETATM    7  C19 UNL     1     -16.694   0.351  14.236  1.00  0.00    -0.066 C 
HETATM    8  C20 UNL     1     -15.785   0.885  15.088  1.00  0.00    -0.021 C 
HETATM    9  C21 UNL     1     -15.032   2.168  14.868  1.00  0.00     0.052 C 
HETATM   10  C23 UNL     1     -16.972   1.020  12.906  1.00  0.00     0.038 C 
HETATM   11  C24 UNL     1     -16.353   0.156  11.817  1.00  0.00     0.042 C 
HETATM   12  C25 UNL     1     -16.879  -1.304  11.816  1.00  0.00     0.065 C 
HETATM   13  C26 UNL     1     -18.288  -1.288  11.177  1.00  0.00     0.047 C 
ENDROOT
BRANCH   1  14
HETATM   14  C6  UNL     1     -13.989  -4.513  12.841  1.00  0.00    -0.050 C 
HETATM   15  C5  UNL     1     -13.790  -4.822  11.540  1.00  0.00     0.005 C 
BRANCH  15  16
HETATM   16  C4  UNL     1     -14.751  -4.676  10.462  1.00  0.00     0.001 C 
HETATM   17  C3  UNL     1     -14.922  -5.598   9.500  1.00  0.00     0.006 C 
BRANCH  17  18
HETATM   18  C2  UNL     1     -15.827  -5.496   8.360  1.00  0.00    -0.067 C 
HETATM   19  C1  UNL     1     -17.106  -5.882   8.498  1.00  0.00     0.019 C 
BRANCH  18  20
HETATM   20  C27 UNL     1     -15.327  -5.014   7.008  1.00  0.00     0.041 C 
BRANCH  20  21
HETATM   21  C28 UNL     1     -13.802  -5.117   6.828  1.00  0.00     0.032 C 
BRANCH  21  22
HETATM   22  C29 UNL     1     -13.325  -4.420   5.584  1.00  0.00    -0.024 C 
HETATM   23  C30 UNL     1     -12.648  -4.948   4.547  1.00  0.00    -0.091 C 
HETATM   24  C31 UNL     1     -12.198  -6.379   4.447  1.00  0.00     0.042 C 
HETATM   25  C32 UNL     1     -12.274  -4.094   3.362  1.00  0.00     0.042 C 
ENDBRANCH  21  22
ENDBRANCH  20  21
ENDBRANCH  18  20
ENDBRANCH  17  18
ENDBRANCH  15  16
BRANCH  14  26
HETATM   26  C7  UNL     1     -12.852  -4.693  13.825  1.00  0.00     0.202 C 
BRANCH  26  27
HETATM   27  O1  UNL     1     -13.352  -5.233  15.044  1.00  0.00    -0.385 OA
BRANCH  27  28
HETATM   28  C8  UNL     1     -13.588  -6.642  15.035  1.00  0.00     0.194 C 
BRANCH  28  29
HETATM   29  C9  UNL     1     -14.230  -7.140  16.331  1.00  0.00     0.190 C 
BRANCH  29  30
HETATM   30  O2  UNL     1     -14.212  -6.113  17.320  1.00  0.00    -0.399 OA
HETATM   31  H12 UNL     1     -14.223  -6.546  18.191  1.00  0.00     0.209 HD
ENDBRANCH  29  30
ENDBRANCH  28  29
ENDBRANCH  27  28
ENDBRANCH  26  27
ENDBRANCH  14  26
ENDBRANCH   1  14
BRANCH   5  32
HETATM   32  O3  UNL     1     -14.371  -1.675  13.233  1.00  0.00    -0.394 OA
HETATM   33  H19 UNL     1     -13.536  -2.138  13.421  1.00  0.00     0.210 HD
ENDBRANCH   5  32
BRANCH   6  34
HETATM   34  C16 UNL     1     -17.760  -1.531  15.746  1.00  0.00     0.012 C 
BRANCH  34  35
HETATM   35  C17 UNL     1     -16.691  -2.527  16.233  1.00  0.00     0.027 C 
BRANCH  35  36
HETATM   36  C18 UNL     1     -16.797  -2.809  17.728  1.00  0.00     0.164 C 
BRANCH  36  37
HETATM   37  O4  UNL     1     -16.271  -4.093  18.043  1.00  0.00    -0.401 OA
HETATM   38  H27 UNL     1     -15.302  -4.025  18.005  1.00  0.00     0.209 HD
ENDBRANCH  36  37
ENDBRANCH  35  36
ENDBRANCH  34  35
ENDBRANCH   6  34
BRANCH  12  39
HETATM   39  O6  UNL     1     -16.066  -2.040  10.891  1.00  0.00    -0.389 OA
HETATM   40  H39 UNL     1     -15.981  -1.520  10.075  1.00  0.00     0.210 HD
ENDBRANCH  12  39
BRANCH   8  41
HETATM   41  C22 UNL     1     -15.298   0.166  16.289  1.00  0.00     0.265 C 
HETATM   42  O5  UNL     1     -15.414   0.609  17.425  1.00  0.00    -0.302 OA
ENDBRANCH   8  41
TORSDOF 18
ENDMDL
