MODEL 1
REMARK minimizedAffinity -8.3115139
REMARK CNNscore 0.371340156
REMARK CNNaffinity 7.30744028
REMARK  12 active torsions:
REMARK  status: ('A' for Active; 'I' for Inactive)
REMARK    1  A    between atoms: C2_2  and  O2_4 
REMARK    2  A    between atoms: O2_4  and  C3_5 
REMARK    3  A    between atoms: C4_6  and  O3_7 
REMARK    4  A    between atoms: O3_7  and  C5_8 
REMARK    5  A    between atoms: C11_14  and  O4_15 
REMARK    6  A    between atoms: C14_18  and  C15_19 
REMARK    7  A    between atoms: C19_23  and  C20_24 
REMARK    8  A    between atoms: C20_24  and  O5_27 
REMARK    9  A    between atoms: C35_42  and  C36_43 
REMARK   10  A    between atoms: C36_43  and  O8_44 
REMARK   11  A    between atoms: C37_45  and  O9_46 
REMARK   12  A    between atoms: C38_47  and  O10_48 
ROOT
HETATM    1  C5  UNL     1      -1.872  50.455 -20.654  1.00  0.00     0.133 C 
HETATM    2  C6  UNL     1      -3.042  51.319 -20.197  1.00  0.00     0.034 C 
HETATM    3  C7  UNL     1      -4.401  50.622 -20.042  1.00  0.00     0.012 C 
HETATM    4  C8  UNL     1      -4.455  49.097 -20.343  1.00  0.00    -0.033 C 
HETATM    5  C9  UNL     1      -4.412  48.918 -21.872  1.00  0.00     0.016 C 
HETATM    6  C10 UNL     1      -5.795  48.454 -19.722  1.00  0.00     0.032 C 
HETATM    7  C11 UNL     1      -7.148  49.025 -20.270  1.00  0.00     0.124 C 
HETATM    8  C12 UNL     1      -8.407  48.432 -19.600  1.00  0.00     0.038 C 
HETATM    9  C13 UNL     1      -8.375  46.916 -19.591  1.00  0.00     0.004 C 
HETATM   10  C14 UNL     1      -9.550  46.160 -18.951  1.00  0.00     0.025 C 
HETATM   11  C23 UNL     1      -8.959  44.741 -18.774  1.00  0.00     0.009 C 
HETATM   12  C24 UNL     1      -7.424  44.866 -18.840  1.00  0.00     0.011 C 
HETATM   13  C25 UNL     1      -7.115  46.381 -18.867  1.00  0.00    -0.032 C 
HETATM   14  C26 UNL     1      -7.061  46.832 -17.372  1.00  0.00     0.016 C 
HETATM   15  C27 UNL     1      -5.817  46.857 -19.679  1.00  0.00    -0.030 C 
HETATM   16  C28 UNL     1      -5.815  46.242 -21.115  1.00  0.00     0.016 C 
HETATM   17  C29 UNL     1      -4.523  46.358 -18.985  1.00  0.00     0.011 C 
HETATM   18  C30 UNL     1      -3.238  46.929 -19.577  1.00  0.00     0.007 C 
HETATM   19  C31 UNL     1      -3.222  48.471 -19.592  1.00  0.00     0.004 C 
HETATM   20  C32 UNL     1      -1.800  49.084 -19.923  1.00  0.00    -0.017 C 
HETATM   21  C33 UNL     1      -0.889  48.123 -20.734  1.00  0.00     0.018 C 
HETATM   22  C34 UNL     1      -1.078  49.319 -18.562  1.00  0.00     0.018 C 
ENDROOT
BRANCH   1  23
HETATM   23  O3  UNL     1      -1.918  50.252 -22.075  1.00  0.00    -0.352 OA
BRANCH  23  24
HETATM   24  C4  UNL     1      -2.254  51.423 -22.836  1.00  0.00     0.293 C 
HETATM   25  C3  UNL     1      -0.950  52.092 -23.320  1.00  0.00     0.218 C 
HETATM   26  C38 UNL     1      -1.229  52.925 -24.567  1.00  0.00     0.183 C 
HETATM   27  C37 UNL     1      -1.921  52.114 -25.678  1.00  0.00     0.180 C 
HETATM   28  C35 UNL     1      -2.717  50.903 -25.170  1.00  0.00     0.179 C 
HETATM   29  O7  UNL     1      -3.204  51.093 -23.839  1.00  0.00    -0.348 OA
BRANCH  25  30
HETATM   30  O2  UNL     1      -0.461  52.943 -22.236  1.00  0.00    -0.309 OA
BRANCH  30  31
HETATM   31  C2  UNL     1       0.822  52.741 -21.853  1.00  0.00     0.255 C 
HETATM   32  C1  UNL     1       1.503  54.041 -21.562  1.00  0.00     0.126 C 
HETATM   33  O1  UNL     1       1.357  51.645 -21.780  1.00  0.00    -0.266 OA
ENDBRANCH  30  31
ENDBRANCH  25  30
BRANCH  26  34
HETATM   34  O10 UNL     1      -0.041  53.518 -25.131  1.00  0.00    -0.390 OA
HETATM   35  H64 UNL     1       0.735  53.175 -24.648  1.00  0.00     0.210 HD
ENDBRANCH  26  34
BRANCH  27  36
HETATM   36  O9  UNL     1      -2.833  53.016 -26.339  1.00  0.00    -0.390 OA
HETATM   37  H62 UNL     1      -2.734  52.882 -27.297  1.00  0.00     0.210 HD
ENDBRANCH  27  36
BRANCH  28  38
HETATM   38  C36 UNL     1      -1.990  49.564 -25.364  1.00  0.00     0.198 C 
BRANCH  38  39
HETATM   39  O8  UNL     1      -2.469  48.841 -26.493  1.00  0.00    -0.398 OA
HETATM   40  H60 UNL     1      -1.749  48.257 -26.792  1.00  0.00     0.209 HD
ENDBRANCH  38  39
ENDBRANCH  28  38
ENDBRANCH  23  24
ENDBRANCH   1  23
BRANCH   7  41
HETATM   41  O4  UNL     1      -7.223  50.433 -20.070  1.00  0.00    -0.395 OA
HETATM   42  H16 UNL     1      -8.016  50.751 -20.521  1.00  0.00     0.210 HD
ENDBRANCH   7  41
BRANCH  10  43
HETATM   43  C15 UNL     1     -10.914  46.182 -19.701  1.00  0.00     0.062 C 
HETATM   44  C16 UNL     1     -10.821  45.710 -21.157  1.00  0.00     0.046 C 
HETATM   45  C17 UNL     1     -11.636  47.531 -19.621  1.00  0.00     0.041 C 
HETATM   46  C18 UNL     1     -12.360  47.467 -18.297  1.00  0.00     0.038 C 
HETATM   47  C19 UNL     1     -12.723  45.989 -18.187  1.00  0.00     0.156 C 
HETATM   48  O6  UNL     1     -11.804  45.262 -19.028  1.00  0.00    -0.372 OA
BRANCH  47  49
HETATM   49  C20 UNL     1     -12.726  45.423 -16.742  1.00  0.00     0.076 C 
HETATM   50  C21 UNL     1     -14.154  45.341 -16.186  1.00  0.00     0.048 C 
HETATM   51  C22 UNL     1     -12.063  44.038 -16.698  1.00  0.00     0.048 C 
BRANCH  49  52
HETATM   52  O5  UNL     1     -11.990  46.306 -15.883  1.00  0.00    -0.388 OA
HETATM   53  H35 UNL     1     -11.723  45.801 -15.095  1.00  0.00     0.210 HD
ENDBRANCH  49  52
ENDBRANCH  47  49
ENDBRANCH  10  43
TORSDOF 12
ENDMDL
