MODEL 1
REMARK minimizedAffinity -6.20766449
REMARK  6 active torsions:
REMARK  status: ('A' for Active; 'I' for Inactive)
REMARK    1  A    between atoms: N1_2  and  C3_4 
REMARK    2  A    between atoms: C3_4  and  C4_5 
REMARK    3  A    between atoms: C4_5  and  O1_6 
REMARK    4  A    between atoms: O1_6  and  C5_7 
REMARK    5  A    between atoms: C5_7  and  C6_8 
REMARK    6  A    between atoms: C5_7  and  C12_14 
ROOT
HETATM    1  C5  UNL     1       8.445  -4.979  30.656  1.00  0.00     0.206 C 
ENDROOT
BRANCH   1   2
HETATM    2  O1  UNL     1       9.009  -6.265  30.373  1.00  0.00    -0.373 OA
BRANCH   2   3
HETATM    3  C4  UNL     1       9.999  -6.250  29.341  1.00  0.00     0.199 C 
BRANCH   3   4
HETATM    4  C3  UNL     1       9.884  -4.986  28.466  1.00  0.00     0.297 C 
BRANCH   4   5
HETATM    5  N1  UNL     1      11.108  -4.203  28.237  1.00  0.00     0.082 N 
HETATM    6  C1  UNL     1      11.436  -3.337  29.366  1.00  0.00     0.309 C 
HETATM    7  C2  UNL     1      11.072  -3.446  26.989  1.00  0.00     0.309 C 
ENDBRANCH   4   5
ENDBRANCH   3   4
ENDBRANCH   2   3
ENDBRANCH   1   2
BRANCH   1   8
HETATM    8  C6  UNL     1       6.956  -5.060  30.371  1.00  0.00    -0.024 A 
HETATM    9  C7  UNL     1       6.101  -4.018  30.767  1.00  0.00     0.010 A 
HETATM   10  C8  UNL     1       4.730  -4.087  30.511  1.00  0.00     0.001 A 
HETATM   11  C9  UNL     1       4.196  -5.192  29.852  1.00  0.00     0.000 A 
HETATM   12  C10 UNL     1       5.032  -6.228  29.443  1.00  0.00     0.001 A 
HETATM   13  C11 UNL     1       6.403  -6.161  29.697  1.00  0.00     0.010 A 
ENDBRANCH   1   8
BRANCH   1  14
HETATM   14  C12 UNL     1       8.767  -4.661  32.086  1.00  0.00     0.062 A 
HETATM   15  C13 UNL     1       8.850  -5.471  33.205  1.00  0.00     0.048 A 
HETATM   16  C14 UNL     1       9.201  -4.615  34.259  1.00  0.00     0.109 A 
HETATM   17  N2  UNL     1       9.340  -3.352  33.857  1.00  0.00    -0.310 N 
HETATM   18  N3  UNL     1       9.060  -3.397  32.539  1.00  0.00    -0.298 N 
ATOM     19  H2  UNL     1       9.599  -2.540  34.417  1.00  0.00     0.186 HD
HETATM   20  C15 UNL     1       9.086  -2.163  31.788  1.00  0.00     0.177 C 
ENDBRANCH   1  14
TORSDOF 6
ENDMDL
