MODEL 1
REMARK minimizedAffinity -8.94112396
REMARK  12 active torsions:
REMARK  status: ('A' for Active; 'I' for Inactive)
REMARK    1  A    between atoms: C2_2  and  C23_27 
REMARK    2  A    between atoms: C3_3  and  C4_4 
REMARK    3  A    between atoms: C4_4  and  C5_5 
REMARK    4  A    between atoms: C13_13  and  C14_14 
REMARK    5  A    between atoms: C14_14  and  C16_16 
REMARK    6  A    between atoms: C17_17  and  C18_18 
REMARK    7  A    between atoms: C18_18  and  O1_19 
REMARK    8  A    between atoms: C18_18  and  C19_20 
REMARK    9  A    between atoms: C20_21  and  C21_23 
REMARK   10  A    between atoms: C21_23  and  C22_24 
REMARK   11  A    between atoms: C22_24  and  O2_25 
REMARK   12  A    between atoms: C23_27  and  O4_29 
ROOT
HETATM    1  C5  UNL     1      -2.326  50.845 -22.421  1.00  0.00     0.225 C 
HETATM    2  C6  UNL     1      -2.646  52.327 -22.704  1.00  0.00     0.036 C 
HETATM    3  C7  UNL     1      -3.031  52.557 -24.157  1.00  0.00     0.005 C 
HETATM    4  C8  UNL     1      -4.263  51.728 -24.523  1.00  0.00     0.042 C 
HETATM    5  C9  UNL     1      -4.285  50.326 -23.864  1.00  0.00     0.162 C 
HETATM    6  C10 UNL     1      -5.321  50.288 -22.711  1.00  0.00     0.042 C 
HETATM    7  C11 UNL     1      -5.576  48.814 -22.448  1.00  0.00     0.003 C 
HETATM    8  C12 UNL     1      -5.360  48.122 -23.788  1.00  0.00     0.008 C 
HETATM    9  C13 UNL     1      -4.886  49.209 -24.786  1.00  0.00     0.031 C 
HETATM   10  N1  UNL     1      -2.952  49.922 -23.388  1.00  0.00     0.098 N 
HETATM   11  H35 UNL     1      -2.331  49.810 -24.187  1.00  0.00     0.317 HD
ENDROOT
BRANCH   9  12
HETATM   12  C14 UNL     1      -4.002  48.590 -25.914  1.00  0.00     0.010 C 
HETATM   13  C15 UNL     1      -4.874  48.042 -27.059  1.00  0.00     0.015 C 
BRANCH  12  14
HETATM   14  C16 UNL     1      -2.922  49.529 -26.415  1.00  0.00    -0.023 C 
HETATM   15  C17 UNL     1      -3.026  50.430 -27.407  1.00  0.00     0.005 C 
BRANCH  15  16
HETATM   16  C18 UNL     1      -1.917  51.341 -27.848  1.00  0.00     0.165 C 
BRANCH  16  17
HETATM   17  O1  UNL     1      -2.398  52.671 -27.915  1.00  0.00    -0.388 OA
HETATM   18  H28 UNL     1      -3.310  52.627 -28.248  1.00  0.00     0.210 HD
ENDBRANCH  16  17
BRANCH  16  19
HETATM   19  C19 UNL     1      -0.725  51.254 -26.938  1.00  0.00     0.028 C 
HETATM   20  C20 UNL     1       0.205  52.181 -26.641  1.00  0.00     0.013 C 
HETATM   21 CL1  UNL     1       0.129  53.803 -27.248  1.00  0.00    -0.089 Cl
BRANCH  20  22
HETATM   22  C21 UNL     1       1.352  51.920 -25.694  1.00  0.00     0.077 C 
BRANCH  22  23
HETATM   23  C22 UNL     1       2.525  51.206 -26.368  1.00  0.00     0.169 C 
BRANCH  23  24
HETATM   24  O2  UNL     1       3.200  52.056 -27.290  1.00  0.00    -0.401 OA
HETATM   25  H34 UNL     1       2.546  52.332 -27.958  1.00  0.00     0.209 HD
ENDBRANCH  23  24
ENDBRANCH  22  23
ENDBRANCH  20  22
ENDBRANCH  16  19
ENDBRANCH  15  16
ENDBRANCH  12  14
ENDBRANCH   9  12
BRANCH   1  26
HETATM   26  C4  UNL     1      -0.793  50.625 -22.377  1.00  0.00     0.063 C 
BRANCH  26  27
HETATM   27  C3  UNL     1      -0.009  51.895 -22.168  1.00  0.00    -0.011 C 
HETATM   28  C2  UNL     1       0.350  52.451 -20.993  1.00  0.00     0.008 C 
HETATM   29  C1  UNL     1       0.080  51.882 -19.634  1.00  0.00     0.055 C 
BRANCH  28  30
HETATM   30  C23 UNL     1       1.097  53.735 -21.068  1.00  0.00     0.171 C 
HETATM   31  O3  UNL     1       1.389  54.355 -22.075  1.00  0.00    -0.646 OA
BRANCH  30  32
HETATM   32  O4  UNL     1       1.436  54.199 -19.855  1.00  0.00    -0.773 OA
HETATM   33  H36 UNL     1       1.901  55.037 -20.055  1.00  0.00     0.167 HD
ENDBRANCH  30  32
ENDBRANCH  28  30
ENDBRANCH  26  27
ENDBRANCH   1  26
TORSDOF 12
ENDMDL
