MODEL 1
REMARK minimizedAffinity -10.2904625
REMARK  4 active torsions:
REMARK  status: ('A' for Active; 'I' for Inactive)
REMARK    1  A    between atoms: C2_2  and  C4_4 
REMARK    2  A    between atoms: C7_7  and  C8_8 
REMARK    3  A    between atoms: C8_8  and  O1_9 
REMARK    4  A    between atoms: C10_11  and  O2_12 
ROOT
HETATM    1  C4  UNL     1      -8.120   5.688  14.075  1.00  0.00     0.018 C 
HETATM    2  C5  UNL     1      -9.410   6.415  14.546  1.00  0.00     0.010 C 
HETATM    3  C6  UNL     1      -8.983   7.823  14.991  1.00  0.00     0.013 C 
HETATM    4  C7  UNL     1      -7.482   7.688  15.290  1.00  0.00    -0.012 C 
HETATM    5  C9  UNL     1      -6.713   9.013  15.214  1.00  0.00     0.044 C 
HETATM    6  C10 UNL     1      -5.184   8.784  15.251  1.00  0.00     0.128 C 
HETATM    7  C11 UNL     1      -4.646   7.770  14.159  1.00  0.00    -0.006 C 
HETATM    8  C12 UNL     1      -4.804   8.488  12.772  1.00  0.00     0.019 C 
HETATM    9  C13 UNL     1      -5.544   6.453  14.185  1.00  0.00     0.002 C 
HETATM   10  C14 UNL     1      -5.086   5.425  13.145  1.00  0.00     0.006 C 
HETATM   11  C15 UNL     1      -3.606   5.062  13.285  1.00  0.00     0.006 C 
HETATM   12  C16 UNL     1      -2.672   6.293  13.280  1.00  0.00     0.003 C 
HETATM   13  C17 UNL     1      -1.137   5.921  13.123  1.00  0.00    -0.035 C 
HETATM   14  C18 UNL     1      -0.658   4.908  14.201  1.00  0.00     0.016 C 
HETATM   15  C19 UNL     1      -0.946   5.194  11.750  1.00  0.00     0.017 C 
HETATM   16  C20 UNL     1       0.459   5.332  11.190  1.00  0.00     0.080 C 
HETATM   17  C21 UNL     1       0.741   6.777  10.868  1.00  0.00     0.135 C 
HETATM   18  O3  UNL     1       1.421   7.062   9.879  1.00  0.00    -0.297 OA
HETATM   19  C22 UNL     1       0.175   7.854  11.813  1.00  0.00     0.017 C 
HETATM   20  C23 UNL     1       1.304   8.896  12.009  1.00  0.00     0.023 C 
HETATM   21  C24 UNL     1      -0.975   8.548  11.073  1.00  0.00     0.023 C 
HETATM   22  C25 UNL     1      -0.198   7.188  13.194  1.00  0.00     0.009 C 
HETATM   23  C26 UNL     1      -0.630   8.161  14.309  1.00  0.00     0.007 C 
HETATM   24  C27 UNL     1      -2.111   8.531  14.330  1.00  0.00     0.011 C 
HETATM   25  C28 UNL     1      -3.082   7.325  14.402  1.00  0.00    -0.030 C 
HETATM   26  C29 UNL     1      -2.934   6.715  15.829  1.00  0.00     0.016 C 
HETATM   27  C30 UNL     1      -7.046   6.803  14.094  1.00  0.00     0.009 C 
ENDROOT
BRANCH   1  28
HETATM   28  C2  UNL     1      -8.335   4.957  12.761  1.00  0.00    -0.089 C 
HETATM   29  C1  UNL     1      -8.206   3.620  12.686  1.00  0.00     0.014 C 
HETATM   30  C3  UNL     1      -8.720   5.754  11.542  1.00  0.00     0.043 C 
ENDBRANCH   1  28
BRANCH   4  31
HETATM   31  C8  UNL     1      -7.301   7.033  16.691  1.00  0.00     0.174 C 
BRANCH  31  32
HETATM   32  O1  UNL     1      -6.419   5.918  16.597  1.00  0.00    -0.400 OA
HETATM   33  H13 UNL     1      -6.269   5.592  17.502  1.00  0.00     0.209 HD
ENDBRANCH  31  32
ENDBRANCH   4  31
BRANCH   6  34
HETATM   34  O2  UNL     1      -4.555  10.058  15.112  1.00  0.00    -0.395 OA
HETATM   35  H17 UNL     1      -4.915  10.640  15.802  1.00  0.00     0.210 HD
ENDBRANCH   6  34
TORSDOF 4
ENDMDL
