MODEL 1
REMARK minimizedAffinity -9.27926922
REMARK CNNscore 0.490145385
REMARK CNNaffinity 6.7864337
REMARK  8 active torsions:
REMARK  status: ('A' for Active; 'I' for Inactive)
REMARK    1  A    between atoms: C5_5  and  C6_6 
REMARK    2  A    between atoms: C6_6  and  O1_9 
REMARK    3  A    between atoms: C14_16  and  C15_17 
REMARK    4  A    between atoms: C16_19  and  O4_20 
REMARK    5  A    between atoms: C17_21  and  C18_22 
REMARK    6  A    between atoms: C19_24  and  O6_25 
REMARK    7  A    between atoms: C21_27  and  C22_28 
REMARK    8  A    between atoms: C22_28  and  C23_29 
ROOT
HETATM    1  C1  UNL     1       1.002   9.285  13.197  1.00  0.00     0.043 C 
HETATM    2  C2  UNL     1      -0.281   9.508  13.963  1.00  0.00    -0.087 C 
HETATM    3  C3  UNL     1      -0.567  10.720  14.478  1.00  0.00    -0.024 C 
HETATM    4  C4  UNL     1      -1.736  11.320  15.225  1.00  0.00     0.035 C 
HETATM    5  C5  UNL     1      -2.903  10.572  15.961  1.00  0.00     0.023 C 
HETATM    6  C9  UNL     1      -3.878   9.942  14.912  1.00  0.00     0.011 C 
HETATM    7  C10 UNL     1      -4.604   8.586  14.937  1.00  0.00     0.039 C 
HETATM    8  C11 UNL     1      -4.010   7.181  14.575  1.00  0.00     0.068 C 
HETATM    9  C12 UNL     1      -3.312   6.535  15.797  1.00  0.00     0.047 C 
HETATM   10  O2  UNL     1      -5.234   6.375  14.474  1.00  0.00    -0.338 OA
HETATM   11  C13 UNL     1      -5.316   5.286  13.643  1.00  0.00     0.095 A 
HETATM   12  C14 UNL     1      -6.567   4.625  13.642  1.00  0.00     0.070 A 
HETATM   13  C16 UNL     1      -6.789   3.549  12.777  1.00  0.00     0.097 A 
HETATM   14  C17 UNL     1      -5.781   3.178  11.881  1.00  0.00     0.069 A 
HETATM   15  C19 UNL     1      -4.552   3.861  11.871  1.00  0.00     0.091 A 
HETATM   16  C20 UNL     1      -4.260   4.880  12.794  1.00  0.00     0.015 A 
HETATM   17  C21 UNL     1      -2.901   5.571  12.985  1.00  0.00     0.031 C 
HETATM   18  C26 UNL     1      -3.248   7.085  13.195  1.00  0.00     0.029 C 
HETATM   19  C27 UNL     1      -2.109   8.094  12.926  1.00  0.00     0.012 C 
HETATM   20  C28 UNL     1      -1.144   8.290  14.082  1.00  0.00     0.034 C 
ENDROOT
BRANCH   5  21
HETATM   21  C6  UNL     1      -2.541   9.914  17.336  1.00  0.00     0.054 C 
HETATM   22  C7  UNL     1      -1.195  10.434  17.888  1.00  0.00     0.045 C 
HETATM   23  C8  UNL     1      -3.596  10.216  18.409  1.00  0.00     0.045 C 
BRANCH  21  24
HETATM   24  O1  UNL     1      -2.412   8.506  17.248  1.00  0.00    -0.390 OA
HETATM   25  H14 UNL     1      -1.599   8.315  16.743  1.00  0.00     0.210 HD
ENDBRANCH  21  24
ENDBRANCH   5  21
BRANCH  17  26
HETATM   26  C22 UNL     1      -1.741   5.269  12.000  1.00  0.00     0.014 C 
BRANCH  26  27
HETATM   27  C23 UNL     1      -0.549   4.502  12.633  1.00  0.00    -0.022 C 
HETATM   28  C24 UNL     1      -0.214   3.269  11.790  1.00  0.00     0.009 C 
HETATM   29  C25 UNL     1       0.697   5.389  12.746  1.00  0.00     0.009 C 
ENDBRANCH  26  27
ENDBRANCH  17  26
BRANCH  12  30
HETATM   30  C15 UNL     1      -7.624   5.106  14.576  1.00  0.00     0.275 C 
HETATM   31  O3  UNL     1      -8.409   6.012  14.328  1.00  0.00    -0.301 OA
ENDBRANCH  12  30
BRANCH  13  32
HETATM   32  O4  UNL     1      -7.975   2.867  12.832  1.00  0.00    -0.359 OA
HETATM   33  H23 UNL     1      -8.005   2.193  12.119  1.00  0.00     0.217 HD
ENDBRANCH  13  32
BRANCH  15  34
HETATM   34  O6  UNL     1      -3.663   3.524  10.889  1.00  0.00    -0.359 OA
HETATM   35  H25 UNL     1      -3.660   4.264  10.250  1.00  0.00     0.217 HD
ENDBRANCH  15  34
BRANCH  14  36
HETATM   36  C18 UNL     1      -5.999   2.069  10.924  1.00  0.00     0.275 C 
HETATM   37  O5  UNL     1      -6.124   0.911  11.313  1.00  0.00    -0.301 OA
ENDBRANCH  14  36
TORSDOF 8
ENDMDL
