MODEL 1
REMARK minimizedAffinity -9.73638153
REMARK  10 active torsions:
REMARK  status: ('A' for Active; 'I' for Inactive)
REMARK    1  A    between atoms: C2_2  and  O1_4 
REMARK    2  A    between atoms: C2_2  and  C4_5 
REMARK    3  A    between atoms: C4_5  and  O2_6 
REMARK    4  A    between atoms: C4_5  and  C5_7 
REMARK    5  A    between atoms: C5_7  and  O3_8 
REMARK    6  A    between atoms: C5_7  and  C6_9 
REMARK    7  A    between atoms: C6_9  and  C7_10 
REMARK    8  A    between atoms: C7_10  and  C8_11 
REMARK    9  A    between atoms: C7_10  and  C9_13 
REMARK   10  A    between atoms: C8_11  and  O4_12 
ROOT
HETATM    1  C9  UNL     1      -3.340   7.371  14.261  1.00  0.00     0.001 C 
HETATM    2  C10 UNL     1      -4.041   8.483  13.422  1.00  0.00     0.007 C 
HETATM    3  C11 UNL     1      -3.108   8.849  12.254  1.00  0.00     0.015 C 
HETATM    4  C12 UNL     1      -1.759   8.192  12.604  1.00  0.00    -0.013 C 
HETATM    5  C13 UNL     1      -1.026   9.174  13.573  1.00  0.00     0.021 C 
HETATM    6  C14 UNL     1      -0.783   7.923  11.465  1.00  0.00    -0.070 C 
HETATM    7  C15 UNL     1      -0.688   8.730  10.390  1.00  0.00    -0.022 C 
HETATM    8  C16 UNL     1       0.309   8.558   9.282  1.00  0.00     0.034 C 
HETATM    9  C17 UNL     1       1.095   7.229   9.342  1.00  0.00     0.013 C 
HETATM   10  C18 UNL     1       2.197   7.095   8.233  1.00  0.00     0.018 C 
HETATM   11  C19 UNL     1       1.510   6.962   6.851  1.00  0.00     0.023 C 
HETATM   12  C20 UNL     1       3.186   8.267   8.129  1.00  0.00     0.023 C 
HETATM   13  C21 UNL     1       3.015   5.816   8.474  1.00  0.00     0.135 C 
HETATM   14  O5  UNL     1       3.377   5.082   7.552  1.00  0.00    -0.297 OA
HETATM   15  C22 UNL     1       3.467   5.533   9.886  1.00  0.00     0.080 C 
HETATM   16  C23 UNL     1       2.280   5.544  10.832  1.00  0.00     0.017 C 
HETATM   17  C24 UNL     1       1.501   6.883  10.827  1.00  0.00    -0.031 C 
HETATM   18  C25 UNL     1       2.369   7.971  11.502  1.00  0.00     0.016 C 
HETATM   19  C26 UNL     1       0.140   6.707  11.621  1.00  0.00     0.024 C 
HETATM   20  C27 UNL     1       0.285   6.248  13.092  1.00  0.00     0.010 C 
HETATM   21  C28 UNL     1      -1.032   6.140  13.898  1.00  0.00     0.011 C 
HETATM   22  C29 UNL     1      -2.243   6.853  13.263  1.00  0.00    -0.029 C 
HETATM   23  C30 UNL     1      -2.928   5.879  12.250  1.00  0.00     0.016 C 
ENDROOT
BRANCH   1  24
HETATM   24  C7  UNL     1      -4.346   6.345  14.875  1.00  0.00     0.016 C 
BRANCH  24  25
HETATM   25  C6  UNL     1      -5.789   6.922  14.956  1.00  0.00     0.041 C 
BRANCH  25  26
HETATM   26  C5  UNL     1      -6.877   5.821  14.958  1.00  0.00     0.150 C 
BRANCH  26  27
HETATM   27  C4  UNL     1      -8.090   6.158  14.040  1.00  0.00     0.180 C 
BRANCH  27  28
HETATM   28  C2  UNL     1      -9.205   6.992  14.741  1.00  0.00     0.079 C 
HETATM   29  C1  UNL     1     -10.427   7.130  13.820  1.00  0.00     0.048 C 
HETATM   30  C3  UNL     1      -8.757   8.382  15.194  1.00  0.00     0.048 C 
BRANCH  28  31
HETATM   31  O1  UNL     1      -9.641   6.272  15.905  1.00  0.00    -0.388 OA
HETATM   32  H7  UNL     1      -9.759   5.348  15.602  1.00  0.00     0.210 HD
ENDBRANCH  28  31
ENDBRANCH  27  28
BRANCH  27  33
HETATM   33  O2  UNL     1      -8.715   4.950  13.565  1.00  0.00    -0.390 OA
HETATM   34  H9  UNL     1      -8.168   4.601  12.839  1.00  0.00     0.210 HD
ENDBRANCH  27  33
ENDBRANCH  26  27
BRANCH  26  35
HETATM   35  O3  UNL     1      -7.314   5.589  16.301  1.00  0.00    -0.393 OA
HETATM   36  H11 UNL     1      -7.887   6.326  16.573  1.00  0.00     0.210 HD
ENDBRANCH  26  35
ENDBRANCH  25  26
ENDBRANCH  24  25
BRANCH  24  37
HETATM   37  C8  UNL     1      -3.903   5.881  16.277  1.00  0.00     0.169 C 
BRANCH  37  38
HETATM   38  O4  UNL     1      -2.971   6.804  16.828  1.00  0.00    -0.400 OA
HETATM   39  H17 UNL     1      -2.199   6.803  16.227  1.00  0.00     0.209 HD
ENDBRANCH  37  38
ENDBRANCH  24  37
ENDBRANCH   1  24
TORSDOF 10
ENDMDL
