MODEL 1
REMARK minimizedAffinity -9.52915001
REMARK  14 active torsions:
REMARK  status: ('A' for Active; 'I' for Inactive)
REMARK    1  A    between atoms: C2_2  and  O1_3 
REMARK    2  A    between atoms: O1_3  and  C3_4 
REMARK    3  A    between atoms: C4_6  and  C5_7 
REMARK    4  A    between atoms: C5_7  and  O3_8 
REMARK    5  A    between atoms: C5_7  and  C6_9 
REMARK    6  A    between atoms: C6_9  and  O4_10 
REMARK    7  A    between atoms: O4_10  and  C7_11 
REMARK    8  A    between atoms: C12_16  and  C13_17 
REMARK    9  A    between atoms: C13_17  and  O5_19 
REMARK   10  A    between atoms: C13_17  and  C15_20 
REMARK   11  A    between atoms: C15_20  and  O6_21 
REMARK   12  A    between atoms: C18_24  and  O7_26 
REMARK   13  A    between atoms: C22_29  and  O8_30 
REMARK   14  A    between atoms: C23_31  and  O9_32 
ROOT
HETATM    1  C7  UNL     1      -1.442   4.731  13.008  1.00  0.00     0.126 C 
HETATM    2  C8  UNL     1      -1.713   4.773  11.514  1.00  0.00     0.040 C 
HETATM    3  C9  UNL     1      -3.245   4.634  11.387  1.00  0.00     0.026 C 
HETATM    4  C10 UNL     1      -3.805   5.292  12.678  1.00  0.00    -0.001 C 
HETATM    5  C11 UNL     1      -4.983   4.639  13.409  1.00  0.00     0.013 C 
HETATM    6  C12 UNL     1      -6.267   4.473  12.560  1.00  0.00     0.022 C 
HETATM    7  C16 UNL     1      -6.184   3.146  11.775  1.00  0.00     0.010 C 
HETATM    8  C17 UNL     1      -5.184   3.141  10.627  1.00  0.00     0.038 C 
HETATM    9  C18 UNL     1      -3.687   3.209  10.969  1.00  0.00     0.058 C 
HETATM   10  C19 UNL     1      -3.242   2.078  11.903  1.00  0.00     0.046 C 
HETATM   11  C20 UNL     1      -2.565   5.605  13.567  1.00  0.00     0.015 C 
HETATM   12  C21 UNL     1      -2.707   5.435  15.077  1.00  0.00     0.013 C 
ENDROOT
BRANCH   1  13
HETATM   13  O4  UNL     1      -0.178   5.296  13.343  1.00  0.00    -0.383 OA
BRANCH  13  14
HETATM   14  C6  UNL     1      -0.079   6.684  12.991  1.00  0.00     0.202 C 
BRANCH  14  15
HETATM   15  C5  UNL     1       1.380   6.956  12.612  1.00  0.00     0.173 C 
BRANCH  15  16
HETATM   16  C4  UNL     1       1.898   5.979  11.546  1.00  0.00     0.187 C 
HETATM   17  O2  UNL     1       1.084   6.093  10.349  1.00  0.00    -0.348 OA
HETATM   18  C3  UNL     1       1.946   6.433   9.250  1.00  0.00     0.291 C 
HETATM   19  C23 UNL     1       3.302   5.827   9.623  1.00  0.00     0.204 C 
HETATM   20  C22 UNL     1       3.368   6.134  11.113  1.00  0.00     0.183 C 
BRANCH  18  21
HETATM   21  O1  UNL     1       2.067   7.843   9.102  1.00  0.00    -0.359 OA
BRANCH  21  22
HETATM   22  C2  UNL     1       2.574   8.205   7.820  1.00  0.00     0.166 C 
HETATM   23  C1  UNL     1       1.820   7.409   6.773  1.00  0.00     0.033 C 
ENDBRANCH  21  22
ENDBRANCH  18  21
BRANCH  19  24
HETATM   24  O9  UNL     1       3.310   4.406   9.414  1.00  0.00    -0.388 OA
HETATM   25  H42 UNL     1       2.424   4.065   9.637  1.00  0.00     0.210 HD
ENDBRANCH  19  24
BRANCH  20  26
HETATM   26  O8  UNL     1       3.901   7.439  11.335  1.00  0.00    -0.390 OA
HETATM   27  H40 UNL     1       3.175   8.079  11.145  1.00  0.00     0.210 HD
ENDBRANCH  20  26
ENDBRANCH  15  16
BRANCH  15  28
HETATM   28  O3  UNL     1       2.185   6.898  13.804  1.00  0.00    -0.391 OA
HETATM   29  H9  UNL     1       1.696   7.438  14.458  1.00  0.00     0.210 HD
ENDBRANCH  15  28
ENDBRANCH  14  15
ENDBRANCH  13  14
ENDBRANCH   1  13
BRANCH   9  30
HETATM   30  O7  UNL     1      -3.010   2.960   9.712  1.00  0.00    -0.390 OA
HETATM   31  H34 UNL     1      -3.251   2.068   9.409  1.00  0.00     0.210 HD
ENDBRANCH   9  30
BRANCH   6  32
HETATM   32  C13 UNL     1      -7.564   4.536  13.457  1.00  0.00     0.079 C 
HETATM   33  C14 UNL     1      -8.630   5.474  12.859  1.00  0.00     0.048 C 
BRANCH  32  34
HETATM   34  O5  UNL     1      -8.137   3.221  13.517  1.00  0.00    -0.388 OA
HETATM   35  H23 UNL     1      -8.950   3.266  14.051  1.00  0.00     0.210 HD
ENDBRANCH  32  34
BRANCH  32  36
HETATM   36  C15 UNL     1      -7.269   5.019  14.906  1.00  0.00     0.201 C 
BRANCH  36  37
HETATM   37  O6  UNL     1      -7.901   4.219  15.896  1.00  0.00    -0.398 OA
HETATM   38  H26 UNL     1      -7.457   3.354  15.913  1.00  0.00     0.209 HD
ENDBRANCH  36  37
ENDBRANCH  32  36
ENDBRANCH   6  32
TORSDOF 14
ENDMDL
