MODEL 1
REMARK minimizedAffinity -10.0269403
REMARK  8 active torsions:
REMARK  status: ('A' for Active; 'I' for Inactive)
REMARK    1  A    between atoms: C4_4  and  C5_5 
REMARK    2  A    between atoms: C5_5  and  C6_6 
REMARK    3  A    between atoms: C6_6  and  C7_7 
REMARK    4  A    between atoms: C7_7  and  C9_9 
REMARK    5  A    between atoms: C15_15  and  O1_16 
REMARK    6  A    between atoms: C18_19  and  C20_21 
REMARK    7  A    between atoms: C20_21  and  O3_23 
REMARK    8  A    between atoms: C21_24  and  O4_25 
ROOT
HETATM    1  C9  UNL     1       1.189   6.624  13.002  1.00  0.00    -0.002 C 
HETATM    2  C10 UNL     1       0.505   7.792  13.758  1.00  0.00     0.006 C 
HETATM    3  C11 UNL     1      -0.985   7.443  13.920  1.00  0.00     0.011 C 
HETATM    4  C12 UNL     1      -1.107   5.966  13.502  1.00  0.00    -0.030 C 
HETATM    5  C13 UNL     1      -0.766   5.123  14.769  1.00  0.00     0.016 C 
HETATM    6  C14 UNL     1      -2.503   5.552  12.941  1.00  0.00     0.032 C 
HETATM    7  C15 UNL     1      -3.637   5.464  13.983  1.00  0.00     0.124 C 
HETATM    8  C16 UNL     1      -4.963   5.132  13.292  1.00  0.00     0.039 C 
HETATM    9  C17 UNL     1      -4.947   3.699  12.743  1.00  0.00     0.018 C 
HETATM   10  C18 UNL     1      -6.250   3.268  11.979  1.00  0.00     0.072 C 
HETATM   11  C19 UNL     1      -6.821   4.364  11.054  1.00  0.00     0.030 C 
HETATM   12  C21 UNL     1      -6.015   1.953  11.156  1.00  0.00     0.137 C 
HETATM   13  C22 UNL     1      -4.867   1.119  11.727  1.00  0.00     0.034 C 
HETATM   14  C23 UNL     1      -3.535   1.873  11.687  1.00  0.00     0.013 C 
HETATM   15  C24 UNL     1      -3.694   3.374  11.932  1.00  0.00    -0.026 A 
HETATM   16  C25 UNL     1      -3.257   4.285  10.810  1.00  0.00     0.021 A 
HETATM   17  C26 UNL     1      -2.427   4.261  12.081  1.00  0.00    -0.025 A 
HETATM   18  C27 UNL     1      -1.079   3.544  12.024  1.00  0.00     0.011 C 
HETATM   19  C28 UNL     1       0.182   4.421  11.974  1.00  0.00     0.011 C 
HETATM   20  C29 UNL     1      -0.035   5.893  12.351  1.00  0.00    -0.032 C 
HETATM   21  C30 UNL     1      -0.453   6.660  11.059  1.00  0.00     0.016 C 
ENDROOT
BRANCH   1  22
HETATM   22  C7  UNL     1       2.392   7.086  12.122  1.00  0.00    -0.014 C 
HETATM   23  C8  UNL     1       2.092   8.405  11.391  1.00  0.00     0.010 C 
BRANCH  22  24
HETATM   24  C6  UNL     1       2.769   6.039  11.033  1.00  0.00     0.008 C 
BRANCH  24  25
HETATM   25  C5  UNL     1       3.568   6.594   9.849  1.00  0.00     0.028 C 
BRANCH  25  26
HETATM   26  C4  UNL     1       2.826   6.387   8.555  1.00  0.00    -0.025 C 
HETATM   27  C2  UNL     1       2.495   7.321   7.642  1.00  0.00    -0.091 C 
HETATM   28  C1  UNL     1       1.727   6.949   6.402  1.00  0.00     0.042 C 
HETATM   29  C3  UNL     1       2.847   8.781   7.735  1.00  0.00     0.042 C 
ENDBRANCH  25  26
ENDBRANCH  24  25
ENDBRANCH  22  24
ENDBRANCH   1  22
BRANCH   7  30
HETATM   30  O1  UNL     1      -3.792   6.717  14.648  1.00  0.00    -0.395 OA
HETATM   31  H26 UNL     1      -4.482   6.606  15.321  1.00  0.00     0.210 HD
ENDBRANCH   7  30
BRANCH  10  32
HETATM   32  C20 UNL     1      -7.290   2.918  13.049  1.00  0.00     0.151 C 
HETATM   33  O2  UNL     1      -7.396   3.434  14.152  1.00  0.00    -0.649 OA
BRANCH  32  34
HETATM   34  O3  UNL     1      -8.181   1.980  12.678  1.00  0.00    -0.776 OA
HETATM   35  H33 UNL     1      -8.761   1.876  13.461  1.00  0.00     0.167 HD
ENDBRANCH  32  34
ENDBRANCH  10  32
BRANCH  12  36
HETATM   36  O4  UNL     1      -5.708   2.204   9.778  1.00  0.00    -0.394 OA
HETATM   37  H35 UNL     1      -6.537   2.413   9.316  1.00  0.00     0.210 HD
ENDBRANCH  12  36
TORSDOF 8
ENDMDL
