MODEL 1
REMARK minimizedAffinity -9.27813148
REMARK  4 active torsions:
REMARK  status: ('A' for Active; 'I' for Inactive)
REMARK    1  A    between atoms: C10_11  and  O2_12 
REMARK    2  A    between atoms: C14_16  and  C15_17 
REMARK    3  A    between atoms: C15_17  and  O3_18 
REMARK    4  A    between atoms: C16_20  and  O5_21 
ROOT
HETATM    1  C1  UNL     1       1.681   7.258  12.618  1.00  0.00     0.023 C 
HETATM    2  C2  UNL     1       0.507   7.150  11.636  1.00  0.00     0.018 C 
HETATM    3  C3  UNL     1       0.589   8.351  10.666  1.00  0.00     0.023 C 
HETATM    4  C4  UNL     1       0.683   5.871  10.792  1.00  0.00     0.135 C 
HETATM    5  O1  UNL     1       1.531   5.786   9.902  1.00  0.00    -0.297 OA
HETATM    6  C5  UNL     1      -0.241   4.705  11.084  1.00  0.00     0.080 C 
HETATM    7  C6  UNL     1      -0.439   4.611  12.586  1.00  0.00     0.022 C 
HETATM    8  C7  UNL     1      -1.227   5.819  13.174  1.00  0.00    -0.007 C 
HETATM    9  C8  UNL     1      -0.805   5.903  14.667  1.00  0.00     0.021 C 
HETATM   10  C9  UNL     1      -2.777   5.770  13.166  1.00  0.00     0.003 A 
HETATM   11  C10 UNL     1      -3.551   4.618  12.968  1.00  0.00     0.107 A 
HETATM   12  C11 UNL     1      -4.937   4.709  12.971  1.00  0.00     0.112 A 
HETATM   13  C12 UNL     1      -5.609   5.896  13.168  1.00  0.00     0.015 A 
HETATM   14  C13 UNL     1      -7.068   5.642  13.148  1.00  0.00     0.079 C 
HETATM   15  C14 UNL     1      -7.066   4.222  12.559  1.00  0.00     0.157 C 
HETATM   16  O4  UNL     1      -5.762   3.624  12.778  1.00  0.00    -0.340 OA
HETATM   17  C16 UNL     1      -4.895   7.058  13.379  1.00  0.00     0.089 A 
HETATM   18  C17 UNL     1      -3.486   7.002  13.388  1.00  0.00     0.053 A 
HETATM   19  C18 UNL     1      -2.702   8.252  13.657  1.00  0.00     0.163 C 
HETATM   20  O6  UNL     1      -3.141   9.151  14.368  1.00  0.00    -0.292 OA
HETATM   21  C19 UNL     1      -1.310   8.366  13.068  1.00  0.00     0.091 C 
HETATM   22  C20 UNL     1      -0.902   7.100  12.310  1.00  0.00     0.021 C 
ENDROOT
BRANCH  15  23
HETATM   23  C15 UNL     1      -8.148   3.336  13.172  1.00  0.00     0.196 C 
BRANCH  23  24
HETATM   24  O3  UNL     1      -8.101   2.022  12.631  1.00  0.00    -0.398 OA
HETATM   25  H20 UNL     1      -7.384   1.543  13.083  1.00  0.00     0.209 HD
ENDBRANCH  23  24
ENDBRANCH  15  23
BRANCH  17  26
HETATM   26  O5  UNL     1      -5.555   8.240  13.525  1.00  0.00    -0.359 OA
HETATM   27  H21 UNL     1      -6.470   8.082  13.805  1.00  0.00     0.217 HD
ENDBRANCH  17  26
BRANCH  11  28
HETATM   28  O2  UNL     1      -3.009   3.388  12.760  1.00  0.00    -0.357 OA
HETATM   29  H14 UNL     1      -3.756   2.763  12.681  1.00  0.00     0.217 HD
ENDBRANCH  11  28
TORSDOF 4
ENDMDL
