MODEL 1
REMARK minimizedAffinity -8.80818462
REMARK CNNscore 0.516539276
REMARK CNNaffinity 7.30154037
REMARK  11 active torsions:
REMARK  status: ('A' for Active; 'I' for Inactive)
REMARK    1  A    between atoms: C2_2  and  C3_3 
REMARK    2  A    between atoms: C2_2  and  C4_5 
REMARK    3  A    between atoms: C3_3  and  O1_4 
REMARK    4  A    between atoms: C13_14  and  C14_15 
REMARK    5  A    between atoms: C14_15  and  C16_17 
REMARK    6  A    between atoms: C16_17  and  C17_18 
REMARK    7  A    between atoms: C17_18  and  C18_20 
REMARK    8  A    between atoms: C27_29  and  C28_30 
REMARK    9  A    between atoms: C28_30  and  C29_31 
REMARK   10  A    between atoms: C29_31  and  C30_32 
REMARK   11  A    between atoms: C30_32  and  O4_34 
ROOT
HETATM    1  C4  UNL     1      -4.309   4.043  12.688  1.00  0.00     0.025 C 
HETATM    2  C5  UNL     1      -4.506   5.509  13.111  1.00  0.00     0.010 C 
HETATM    3  C6  UNL     1      -3.287   6.017  13.872  1.00  0.00     0.007 C 
HETATM    4  C7  UNL     1      -2.089   6.152  12.924  1.00  0.00     0.004 C 
HETATM    5  C8  UNL     1      -1.783   4.821  12.189  1.00  0.00    -0.027 A 
HETATM    6  C9  UNL     1      -0.333   4.308  12.235  1.00  0.00     0.011 C 
HETATM    7  C10 UNL     1       0.806   5.345  12.314  1.00  0.00     0.011 C 
HETATM    8  C11 UNL     1       0.335   6.785  12.537  1.00  0.00    -0.032 C 
HETATM    9  C12 UNL     1      -0.059   7.363  11.148  1.00  0.00     0.016 C 
HETATM   10  C13 UNL     1       1.374   7.720  13.232  1.00  0.00    -0.002 C 
HETATM   11  C22 UNL     1       0.497   8.812  13.893  1.00  0.00     0.006 C 
HETATM   12  C23 UNL     1      -0.946   8.270  13.923  1.00  0.00     0.011 C 
HETATM   13  C24 UNL     1      -0.830   6.770  13.584  1.00  0.00    -0.032 C 
HETATM   14  C25 UNL     1      -0.504   6.035  14.922  1.00  0.00     0.016 C 
HETATM   15  C26 UNL     1      -2.503   4.653  10.863  1.00  0.00     0.022 A 
HETATM   16  C27 UNL     1      -2.936   3.779  12.015  1.00  0.00    -0.024 A 
ENDROOT
BRANCH  10  17
HETATM   17  C14 UNL     1       2.594   8.218  12.405  1.00  0.00    -0.007 C 
HETATM   18  C15 UNL     1       2.822   9.716  12.681  1.00  0.00     0.011 C 
BRANCH  17  19
HETATM   19  C16 UNL     1       2.491   8.021  10.878  1.00  0.00     0.087 C 
BRANCH  19  20
HETATM   20  C17 UNL     1       3.368   6.880  10.378  1.00  0.00     0.149 C 
HETATM   21  O2  UNL     1       4.247   6.386  11.079  1.00  0.00    -0.293 OA
BRANCH  20  22
HETATM   22  C18 UNL     1       3.078   6.375   8.998  1.00  0.00     0.052 C 
HETATM   23  C19 UNL     1       2.463   7.065   8.016  1.00  0.00    -0.084 C 
HETATM   24  C20 UNL     1       2.000   8.492   8.136  1.00  0.00     0.043 C 
HETATM   25  C21 UNL     1       2.195   6.423   6.681  1.00  0.00     0.043 C 
ENDBRANCH  20  22
ENDBRANCH  19  20
ENDBRANCH  17  19
ENDBRANCH  10  17
BRANCH  16  26
HETATM   26  C28 UNL     1      -2.606   2.285  11.872  1.00  0.00     0.021 C 
BRANCH  26  27
HETATM   27  C29 UNL     1      -2.029   1.914  10.507  1.00  0.00     0.111 C 
BRANCH  27  28
HETATM   28  C30 UNL     1      -0.840   1.003  10.645  1.00  0.00     0.139 C 
HETATM   29  O3  UNL     1      -0.836  -0.215  10.678  1.00  0.00    -0.650 OA
BRANCH  28  30
HETATM   30  O4  UNL     1       0.310   1.696  10.762  1.00  0.00    -0.776 OA
HETATM   31  H46 UNL     1       0.998   1.003  10.859  1.00  0.00     0.167 HD
ENDBRANCH  28  30
ENDBRANCH  27  28
ENDBRANCH  26  27
ENDBRANCH  16  26
BRANCH   1  32
HETATM   32  C2  UNL     1      -5.560   3.545  11.950  1.00  0.00    -0.061 C 
HETATM   33  C1  UNL     1      -6.767   3.422  12.534  1.00  0.00     0.017 C 
BRANCH  32  34
HETATM   34  C3  UNL     1      -5.322   3.195  10.494  1.00  0.00     0.198 C 
BRANCH  34  35
HETATM   35  O1  UNL     1      -5.805   1.900  10.167  1.00  0.00    -0.397 OA
HETATM   36  H5  UNL     1      -6.757   1.906  10.364  1.00  0.00     0.209 HD
ENDBRANCH  34  35
ENDBRANCH  32  34
ENDBRANCH   1  32
TORSDOF 11
ENDMDL
