MODEL 1
REMARK minimizedAffinity -6.34081841
REMARK CNNscore 0.50327599
REMARK CNNaffinity 5.91671944
REMARK  5 active torsions:
REMARK  status: ('A' for Active; 'I' for Inactive)
REMARK    1  A    between atoms: C2_2  and  C3_3 
REMARK    2  A    between atoms: C6_6  and  O1_7 
REMARK    3  A    between atoms: C7_8  and  C8_9 
REMARK    4  A    between atoms: C8_9  and  C9_10 
REMARK    5  A    between atoms: C26_32  and  O6_33 
ROOT
HETATM    1  C3  UNL     1      -4.728  18.150   4.755  1.00  0.00     0.008 C 
HETATM    2  C4  UNL     1      -4.081  17.063   5.585  1.00  0.00    -0.023 C 
HETATM    3  C5  UNL     1      -2.777  16.858   5.843  1.00  0.00     0.003 C 
HETATM    4  C6  UNL     1      -1.538  17.617   5.429  1.00  0.00     0.170 C 
HETATM    5  C7  UNL     1      -0.307  16.699   5.187  1.00  0.00     0.164 C 
HETATM    6  O2  UNL     1      -0.442  15.955   3.944  1.00  0.00    -0.312 OA
HETATM    7  C12 UNL     1      -0.739  14.625   4.044  1.00  0.00     0.276 C 
HETATM    8  O3  UNL     1      -1.151  14.088   5.066  1.00  0.00    -0.264 OA
HETATM    9  C13 UNL     1      -0.252  13.857   2.780  1.00  0.00     0.095 A 
HETATM   10  C14 UNL     1      -0.951  12.476   2.679  1.00  0.00     0.036 C 
HETATM   11  C15 UNL     1       1.181  13.531   3.168  1.00  0.00     0.003 A 
HETATM   12  C16 UNL     1       2.363  13.767   2.600  1.00  0.00     0.072 A 
HETATM   13  C17 UNL     1       2.689  14.439   1.345  1.00  0.00     0.245 A 
HETATM   14  O4  UNL     1       3.871  14.507   1.010  1.00  0.00    -0.268 OA
HETATM   15  N1  UNL     1       1.744  14.991   0.565  1.00  0.00    -0.320 N 
HETATM   16  C18 UNL     1       0.382  15.150   0.607  1.00  0.00     0.098 A 
HETATM   17  C19 UNL     1      -0.497  14.698   1.518  1.00  0.00     0.045 A 
HETATM   18  C20 UNL     1      -1.954  15.030   1.297  1.00  0.00     0.194 C 
HETATM   19  O5  UNL     1      -2.823  14.424   1.908  1.00  0.00    -0.287 OA
HETATM   20  C21 UNL     1      -2.374  16.041   0.309  1.00  0.00     0.046 A 
HETATM   21  C22 UNL     1      -1.456  16.414  -0.662  1.00  0.00     0.032 A 
HETATM   22  C23 UNL     1      -1.825  17.251  -1.728  1.00  0.00     0.026 A 
HETATM   23  C24 UNL     1      -3.139  17.712  -1.850  1.00  0.00    -0.027 A 
HETATM   24  C25 UNL     1      -3.524  18.599  -2.999  1.00  0.00     0.051 C 
HETATM   25  C26 UNL     1      -4.059  17.361  -0.861  1.00  0.00     0.086 A 
HETATM   26  C27 UNL     1      -3.684  16.558   0.238  1.00  0.00     0.059 A 
HETATM   27  C28 UNL     1      -4.715  16.382   1.297  1.00  0.00     0.163 C 
HETATM   28  O7  UNL     1      -5.875  16.168   0.940  1.00  0.00    -0.292 OA
HETATM   29  C29 UNL     1      -4.329  16.625   2.737  1.00  0.00     0.084 C 
HETATM   30  C30 UNL     1      -5.301  17.575   3.440  1.00  0.00     0.016 C 
HETATM   31  C31 UNL     1      -0.075  15.940  -0.590  1.00  0.00     0.210 C 
HETATM   32  O8  UNL     1       0.726  16.210  -1.483  1.00  0.00    -0.285 OA
HETATM   33  H26 UNL     1       2.176  15.410  -0.264  1.00  0.00     0.169 HD
ENDROOT
BRANCH   5  34
HETATM   34  C8  UNL     1       1.010  17.486   5.010  1.00  0.00     0.039 C 
BRANCH  34  35
HETATM   35  C9  UNL     1       2.150  17.157   5.991  1.00  0.00    -0.020 C 
HETATM   36  C10 UNL     1       3.040  16.062   5.396  1.00  0.00     0.009 C 
HETATM   37  C11 UNL     1       1.635  16.714   7.362  1.00  0.00     0.009 C 
ENDBRANCH  34  35
ENDBRANCH   5  34
BRANCH   4  38
HETATM   38  O1  UNL     1      -1.768  18.420   4.276  1.00  0.00    -0.389 OA
HETATM   39  H10 UNL     1      -1.158  19.174   4.327  1.00  0.00     0.210 HD
ENDBRANCH   4  38
BRANCH   1  40
HETATM   40  C2  UNL     1      -5.812  18.853   5.598  1.00  0.00     0.004 C 
HETATM   41  C1  UNL     1      -6.493  17.932   6.601  1.00  0.00     0.006 C 
ENDBRANCH   1  40
BRANCH  25  42
HETATM   42  O6  UNL     1      -5.338  17.841  -1.004  1.00  0.00    -0.359 OA
HETATM   43  H31 UNL     1      -5.937  17.313  -0.429  1.00  0.00     0.217 HD
ENDBRANCH  25  42
TORSDOF 5
ENDMDL
