MODEL 1
REMARK minimizedAffinity -8.43497658
REMARK  10 active torsions:
REMARK  status: ('A' for Active; 'I' for Inactive)
REMARK    1  A    between atoms: C5_5  and  C6_6 
REMARK    2  A    between atoms: C6_6  and  C8_8 
REMARK    3  A    between atoms: C8_8  and  O1_9 
REMARK    4  A    between atoms: O1_9  and  C9_10 
REMARK    5  A    between atoms: C17_20  and  O4_21 
REMARK    6  A    between atoms: C19_23  and  O5_24 
REMARK    7  A    between atoms: O5_24  and  C20_25 
REMARK    8  A    between atoms: C20_25  and  C21_27 
REMARK    9  A    between atoms: C21_27  and  C22_28 
REMARK   10  A    between atoms: C24_30  and  O7_32 
ROOT
HETATM    1  C1  UNL     1      -2.701   8.278  16.556  1.00  0.00     0.015 C 
HETATM    2  C2  UNL     1      -2.658   8.297  15.214  1.00  0.00    -0.082 C 
HETATM    3  C3  UNL     1      -3.832   8.780  14.399  1.00  0.00     0.034 C 
HETATM    4  C4  UNL     1      -3.853   8.196  12.983  1.00  0.00     0.010 C 
HETATM    5  C5  UNL     1      -3.313   6.754  12.900  1.00  0.00    -0.001 C 
HETATM    6  C11 UNL     1      -1.828   6.685  13.428  1.00  0.00     0.033 C 
HETATM    7  C12 UNL     1      -0.768   6.897  12.323  1.00  0.00     0.163 C 
HETATM    8  O3  UNL     1      -0.475   8.302  12.320  1.00  0.00    -0.376 OA
HETATM    9  C13 UNL     1      -0.779   8.871  13.594  1.00  0.00     0.134 C 
HETATM   10  C14 UNL     1       0.452   9.566  14.203  1.00  0.00     0.068 C 
HETATM   11  C15 UNL     1       1.592   8.683  14.669  1.00  0.00    -0.058 C 
HETATM   12  C16 UNL     1       1.695   8.393  15.984  1.00  0.00     0.017 C 
HETATM   13  C17 UNL     1       2.668   8.269  13.670  1.00  0.00     0.149 C 
HETATM   14  C18 UNL     1       2.318   8.033  12.193  1.00  0.00     0.072 C 
HETATM   15  C19 UNL     1       1.783   6.649  11.755  1.00  0.00     0.171 C 
HETATM   16  C24 UNL     1       0.547   6.047  12.497  1.00  0.00     0.107 C 
HETATM   17  C25 UNL     1       0.272   4.627  11.952  1.00  0.00     0.051 C 
HETATM   18  C26 UNL     1      -1.463   7.786  14.442  1.00  0.00     0.050 C 
ENDROOT
BRANCH   5  19
HETATM   19  C6  UNL     1      -4.223   5.708  13.643  1.00  0.00     0.010 C 
HETATM   20  C7  UNL     1      -5.650   6.211  13.912  1.00  0.00     0.012 C 
BRANCH  19  21
HETATM   21  C8  UNL     1      -4.308   4.359  12.886  1.00  0.00     0.183 C 
BRANCH  21  22
HETATM   22  O1  UNL     1      -5.586   4.189  12.244  1.00  0.00    -0.321 OA
BRANCH  22  23
HETATM   23  C9  UNL     1      -6.074   2.927  12.146  1.00  0.00     0.254 C 
HETATM   24  C10 UNL     1      -7.343   2.808  12.933  1.00  0.00     0.126 C 
HETATM   25  O2  UNL     1      -5.570   2.013  11.511  1.00  0.00    -0.266 OA
ENDBRANCH  22  23
ENDBRANCH  21  22
ENDBRANCH  19  21
ENDBRANCH   5  19
BRANCH  16  26
HETATM   26  O7  UNL     1       0.889   5.875  13.888  1.00  0.00    -0.385 OA
HETATM   27  H39 UNL     1       1.172   4.952  14.020  1.00  0.00     0.210 HD
ENDBRANCH  16  26
BRANCH  15  28
HETATM   28  O5  UNL     1       1.490   6.771  10.338  1.00  0.00    -0.313 OA
BRANCH  28  29
HETATM   29  C20 UNL     1       2.409   6.297   9.457  1.00  0.00     0.259 C 
HETATM   30  O6  UNL     1       2.638   5.118   9.230  1.00  0.00    -0.265 OA
BRANCH  29  31
HETATM   31  C21 UNL     1       3.114   7.441   8.773  1.00  0.00     0.111 C 
BRANCH  31  32
HETATM   32  C22 UNL     1       2.250   8.098   7.702  1.00  0.00     0.005 C 
HETATM   33  C23 UNL     1       1.866   7.133   6.587  1.00  0.00     0.005 C 
ENDBRANCH  31  32
ENDBRANCH  29  31
ENDBRANCH  28  29
ENDBRANCH  15  28
BRANCH  13  34
HETATM   34  O4  UNL     1       3.358   7.115  14.155  1.00  0.00    -0.391 OA
HETATM   35  H25 UNL     1       2.642   6.500  14.406  1.00  0.00     0.210 HD
ENDBRANCH  13  34
TORSDOF 10
ENDMDL
