MODEL 1
REMARK minimizedAffinity -9.36214066
REMARK  4 active torsions:
REMARK  status: ('A' for Active; 'I' for Inactive)
REMARK    1  A    between atoms: C2_2  and  C3_3 
REMARK    2  A    between atoms: C2_2  and  C9_9 
REMARK    3  A    between atoms: C3_3  and  C4_4 
REMARK    4  A    between atoms: C4_4  and  C5_5 
ROOT
HETATM    1  C9  UNL     1      -6.482   6.978  15.291  1.00  0.00     0.018 C 
HETATM    2  C10 UNL     1      -6.415   8.529  15.340  1.00  0.00     0.010 C 
HETATM    3  C11 UNL     1      -4.925   8.882  15.188  1.00  0.00     0.011 C 
HETATM    4  C12 UNL     1      -4.382   7.810  14.216  1.00  0.00    -0.032 C 
HETATM    5  C13 UNL     1      -4.937   8.170  12.801  1.00  0.00     0.016 C 
HETATM    6  C14 UNL     1      -5.065   6.547  14.812  1.00  0.00     0.002 C 
HETATM    7  C15 UNL     1      -4.849   5.327  13.931  1.00  0.00     0.006 C 
HETATM    8  C16 UNL     1      -3.341   5.051  13.764  1.00  0.00     0.006 C 
HETATM    9  C17 UNL     1      -2.519   6.282  13.288  1.00  0.00     0.003 C 
HETATM   10  C18 UNL     1      -0.991   5.992  12.944  1.00  0.00    -0.035 C 
HETATM   11  C19 UNL     1      -0.206   5.499  14.181  1.00  0.00     0.016 C 
HETATM   12  C20 UNL     1      -0.924   4.874  11.857  1.00  0.00     0.017 C 
HETATM   13  C21 UNL     1       0.455   4.671  11.242  1.00  0.00     0.080 C 
HETATM   14  C22 UNL     1       1.033   5.962  10.717  1.00  0.00     0.135 C 
HETATM   15  O1  UNL     1       1.570   5.984   9.607  1.00  0.00    -0.297 OA
HETATM   16  C23 UNL     1       1.023   7.183  11.653  1.00  0.00     0.017 C 
HETATM   17  C24 UNL     1       1.322   8.437  10.792  1.00  0.00     0.023 C 
HETATM   18  C25 UNL     1       2.177   7.040  12.654  1.00  0.00     0.023 C 
HETATM   19  C26 UNL     1      -0.404   7.304  12.292  1.00  0.00     0.009 C 
HETATM   20  C27 UNL     1      -0.584   8.529  13.214  1.00  0.00     0.007 C 
HETATM   21  C28 UNL     1      -2.062   8.782  13.539  1.00  0.00     0.011 C 
HETATM   22  C29 UNL     1      -2.796   7.573  14.175  1.00  0.00    -0.032 C 
HETATM   23  C30 UNL     1      -2.234   7.415  15.618  1.00  0.00     0.016 C 
ENDROOT
BRANCH   1  24
HETATM   24  C2  UNL     1      -7.695   6.314  14.644  1.00  0.00    -0.084 C 
HETATM   25  C1  UNL     1      -8.850   6.952  14.390  1.00  0.00     0.014 C 
BRANCH  24  26
HETATM   26  C3  UNL     1      -7.503   4.821  14.370  1.00  0.00     0.037 C 
BRANCH  26  27
HETATM   27  C4  UNL     1      -7.979   4.275  13.016  1.00  0.00     0.031 C 
BRANCH  27  28
HETATM   28  C5  UNL     1      -7.428   2.897  12.755  1.00  0.00    -0.024 C 
HETATM   29  C6  UNL     1      -6.470   2.549  11.874  1.00  0.00    -0.091 C 
HETATM   30  C7  UNL     1      -5.784   3.493  10.925  1.00  0.00     0.042 C 
HETATM   31  C8  UNL     1      -6.008   1.119  11.768  1.00  0.00     0.042 C 
ENDBRANCH  27  28
ENDBRANCH  26  27
ENDBRANCH  24  26
ENDBRANCH   1  24
TORSDOF 4
ENDMDL
