MODEL 1
REMARK minimizedAffinity -7.37199068
REMARK CNNscore 0.735683501
REMARK CNNaffinity 7.11257553
REMARK  8 active torsions:
REMARK  status: ('A' for Active; 'I' for Inactive)
REMARK    1  A    between atoms: C12_14  and  C13_15 
REMARK    2  A    between atoms: C13_15  and  C15_17 
REMARK    3  A    between atoms: C15_17  and  C16_18 
REMARK    4  A    between atoms: C16_18  and  C17_20 
REMARK    5  A    between atoms: C26_29  and  C27_30 
REMARK    6  A    between atoms: C27_30  and  C28_31 
REMARK    7  A    between atoms: C28_31  and  C29_32 
REMARK    8  A    between atoms: C29_32  and  O5_34 
ROOT
HETATM    1  C1  UNL     1      -5.523  50.366 -10.352  1.00  0.00     0.025 C 
HETATM    2  C2  UNL     1      -4.242  50.124 -10.047  1.00  0.00     0.015 C 
HETATM    3  C3  UNL     1      -3.869  49.082  -9.067  1.00  0.00     0.289 C 
HETATM    4  O1  UNL     1      -4.617  48.277  -8.544  1.00  0.00    -0.260 OA
HETATM    5  O2  UNL     1      -2.529  49.165  -8.861  1.00  0.00    -0.311 OA
HETATM    6  C4  UNL     1      -1.992  50.348  -9.486  1.00  0.00     0.142 C 
HETATM    7  C5  UNL     1      -1.714  51.372  -8.393  1.00  0.00     0.039 C 
HETATM    8  C6  UNL     1      -1.322  52.777  -8.878  1.00  0.00     0.006 C 
HETATM    9  C7  UNL     1      -2.188  53.280 -10.059  1.00  0.00    -0.027 A 
HETATM   10  C8  UNL     1      -1.761  54.646 -10.634  1.00  0.00     0.011 C 
HETATM   11  C9  UNL     1      -0.247  54.872 -10.767  1.00  0.00     0.011 C 
HETATM   12  C10 UNL     1       0.486  54.515  -9.464  1.00  0.00    -0.032 C 
HETATM   13  C11 UNL     1      -0.010  55.475  -8.346  1.00  0.00     0.016 C 
HETATM   14  C12 UNL     1       2.048  54.535  -9.497  1.00  0.00    -0.002 C 
HETATM   15  C21 UNL     1       2.441  53.507  -8.394  1.00  0.00     0.006 C 
HETATM   16  C22 UNL     1       1.166  52.723  -8.024  1.00  0.00     0.011 C 
HETATM   17  C23 UNL     1       0.194  52.983  -9.187  1.00  0.00    -0.032 C 
HETATM   18  C24 UNL     1       0.624  52.036 -10.353  1.00  0.00     0.016 C 
HETATM   19  C25 UNL     1      -3.685  53.183  -9.884  1.00  0.00     0.022 A 
HETATM   20  C26 UNL     1      -3.024  52.260 -10.896  1.00  0.00    -0.021 A 
HETATM   21  C30 UNL     1      -2.992  50.764 -10.554  1.00  0.00     0.063 C 
ENDROOT
BRANCH  14  22
HETATM   22  C13 UNL     1       2.895  55.843  -9.468  1.00  0.00    -0.007 C 
HETATM   23  C14 UNL     1       3.402  56.387 -10.812  1.00  0.00     0.011 C 
BRANCH  22  24
HETATM   24  C15 UNL     1       4.059  55.740  -8.464  1.00  0.00     0.087 C 
BRANCH  24  25
HETATM   25  C16 UNL     1       4.392  57.059  -7.779  1.00  0.00     0.149 C 
HETATM   26  O3  UNL     1       3.831  58.113  -8.060  1.00  0.00    -0.293 OA
BRANCH  25  27
HETATM   27  C17 UNL     1       5.405  56.980  -6.683  1.00  0.00     0.052 C 
HETATM   28  C18 UNL     1       6.580  56.325  -6.744  1.00  0.00    -0.084 C 
HETATM   29  C19 UNL     1       7.536  56.368  -5.581  1.00  0.00     0.043 C 
HETATM   30  C20 UNL     1       7.060  55.506  -7.911  1.00  0.00     0.043 C 
ENDBRANCH  25  27
ENDBRANCH  24  25
ENDBRANCH  22  24
ENDBRANCH  14  22
BRANCH  20  31
HETATM   31  C27 UNL     1      -3.174  52.517 -12.406  1.00  0.00     0.021 C 
BRANCH  31  32
HETATM   32  C28 UNL     1      -2.230  51.722 -13.306  1.00  0.00     0.111 C 
BRANCH  32  33
HETATM   33  C29 UNL     1      -2.988  50.990 -14.380  1.00  0.00     0.139 C 
HETATM   34  O4  UNL     1      -3.298  51.405 -15.483  1.00  0.00    -0.650 OA
BRANCH  33  35
HETATM   35  O5  UNL     1      -3.349  49.754 -13.985  1.00  0.00    -0.776 OA
HETATM   36  H41 UNL     1      -3.838  49.386 -14.752  1.00  0.00     0.167 HD
ENDBRANCH  33  35
ENDBRANCH  32  33
ENDBRANCH  31  32
ENDBRANCH  20  31
TORSDOF 8
ENDMDL
