MODEL 1
REMARK minimizedAffinity -7.25614595
REMARK CNNscore 0.790804327
REMARK CNNaffinity 7.19179583
REMARK  4 active torsions:
REMARK  status: ('A' for Active; 'I' for Inactive)
REMARK    1  A    between atoms: C4_4  and  C5_5 
REMARK    2  A    between atoms: C5_5  and  C6_6 
REMARK    3  A    between atoms: C6_6  and  C7_7 
REMARK    4  A    between atoms: C7_7  and  C9_9 
ROOT
HETATM    1  C9  UNL     1       3.878  55.183  -8.395  1.00  0.00    -0.002 C 
HETATM    2  C10 UNL     1       2.983  56.208  -7.637  1.00  0.00     0.007 C 
HETATM    3  C11 UNL     1       1.526  55.950  -8.066  1.00  0.00     0.015 C 
HETATM    4  C12 UNL     1       1.564  54.599  -8.808  1.00  0.00    -0.013 C 
HETATM    5  C13 UNL     1       1.486  53.498  -7.706  1.00  0.00     0.021 C 
HETATM    6  C14 UNL     1       0.449  54.286  -9.796  1.00  0.00    -0.070 C 
HETATM    7  C15 UNL     1      -0.763  54.868  -9.761  1.00  0.00    -0.022 C 
HETATM    8  C16 UNL     1      -1.858  54.452 -10.696  1.00  0.00     0.034 C 
HETATM    9  C17 UNL     1      -1.806  52.925 -10.860  1.00  0.00     0.013 C 
HETATM   10  C18 UNL     1      -3.076  52.288 -11.506  1.00  0.00     0.018 C 
HETATM   11  C19 UNL     1      -4.192  52.154 -10.448  1.00  0.00     0.023 C 
HETATM   12  C20 UNL     1      -3.646  53.103 -12.681  1.00  0.00     0.023 C 
HETATM   13  C21 UNL     1      -2.751  50.862 -11.972  1.00  0.00     0.135 C 
HETATM   14  O1  UNL     1      -3.430  50.285 -12.824  1.00  0.00    -0.297 OA
HETATM   15  C22 UNL     1      -1.626  50.128 -11.272  1.00  0.00     0.080 C 
HETATM   16  C23 UNL     1      -0.335  50.938 -11.102  1.00  0.00     0.017 C 
HETATM   17  C24 UNL     1      -0.440  52.442 -11.471  1.00  0.00    -0.031 C 
HETATM   18  C25 UNL     1      -0.382  52.562 -13.019  1.00  0.00     0.016 C 
HETATM   19  C26 UNL     1       0.785  53.315 -10.931  1.00  0.00     0.024 C 
HETATM   20  C27 UNL     1       2.101  52.528 -10.717  1.00  0.00     0.010 C 
HETATM   21  C28 UNL     1       3.302  53.341 -10.182  1.00  0.00     0.011 C 
HETATM   22  C29 UNL     1       2.942  54.705  -9.555  1.00  0.00    -0.029 C 
HETATM   23  C30 UNL     1       2.952  55.788 -10.682  1.00  0.00     0.016 C 
ENDROOT
BRANCH   1  24
HETATM   24  C7  UNL     1       5.283  55.758  -8.727  1.00  0.00    -0.014 C 
HETATM   25  C8  UNL     1       6.244  54.703  -9.285  1.00  0.00     0.010 C 
BRANCH  24  26
HETATM   26  C6  UNL     1       5.929  56.523  -7.538  1.00  0.00     0.008 C 
BRANCH  26  27
HETATM   27  C5  UNL     1       6.382  55.720  -6.310  1.00  0.00     0.028 C 
BRANCH  27  28
HETATM   28  C4  UNL     1       7.860  55.731  -6.052  1.00  0.00    -0.025 C 
HETATM   29  C2  UNL     1       8.573  56.690  -5.430  1.00  0.00    -0.091 C 
HETATM   30  C1  UNL     1      10.058  56.539  -5.233  1.00  0.00     0.042 C 
HETATM   31  C3  UNL     1       8.003  57.973  -4.895  1.00  0.00     0.042 C 
ENDBRANCH  27  28
ENDBRANCH  26  27
ENDBRANCH  24  26
ENDBRANCH   1  24
TORSDOF 4
ENDMDL
