MODEL 1
REMARK minimizedAffinity -9.49050903
REMARK  3 active torsions:
REMARK  status: ('A' for Active; 'I' for Inactive)
REMARK    1  A    between atoms: C2_2  and  O1_3 
REMARK    2  A    between atoms: O1_3  and  C3_4 
REMARK    3  A    between atoms: C3_4  and  C4_6 
ROOT
HETATM    1  C4  UNL     1      -6.614   6.257  13.944  1.00  0.00     0.045 C 
HETATM    2  C5  UNL     1      -7.729   7.316  13.898  1.00  0.00     0.026 C 
HETATM    3  C6  UNL     1      -6.309   5.833  15.404  1.00  0.00     0.020 C 
HETATM    4  C7  UNL     1      -5.144   6.611  16.016  1.00  0.00     0.011 C 
HETATM    5  C8  UNL     1      -3.806   6.386  15.253  1.00  0.00    -0.036 C 
HETATM    6  C9  UNL     1      -3.100   5.138  15.846  1.00  0.00     0.016 C 
HETATM    7  C10 UNL     1      -2.900   7.617  15.495  1.00  0.00     0.011 C 
HETATM    8  C11 UNL     1      -1.673   7.706  14.571  1.00  0.00     0.015 C 
HETATM    9  C12 UNL     1      -1.998   7.639  13.045  1.00  0.00    -0.013 C 
HETATM   10  C13 UNL     1      -2.860   8.875  12.663  1.00  0.00     0.021 C 
HETATM   11  C14 UNL     1      -2.823   6.359  12.883  1.00  0.00    -0.070 C 
HETATM   12  C15 UNL     1      -2.390   5.324  12.150  1.00  0.00    -0.022 C 
HETATM   13  C16 UNL     1      -1.052   5.221  11.513  1.00  0.00     0.033 C 
HETATM   14  C17 UNL     1       0.021   6.233  12.026  1.00  0.00     0.007 C 
HETATM   15  C18 UNL     1       1.351   6.114  11.124  1.00  0.00    -0.034 C 
HETATM   16  C19 UNL     1       1.640   4.575  10.978  1.00  0.00     0.016 C 
HETATM   17  C20 UNL     1       2.613   6.684  11.842  1.00  0.00     0.017 C 
HETATM   18  C21 UNL     1       3.442   7.769  11.155  1.00  0.00     0.080 C 
HETATM   19  C22 UNL     1       3.372   7.896   9.651  1.00  0.00     0.135 C 
HETATM   20  O3  UNL     1       4.077   8.734   9.082  1.00  0.00    -0.297 OA
HETATM   21  C23 UNL     1       2.448   6.970   8.870  1.00  0.00     0.017 C 
HETATM   22  C24 UNL     1       3.249   5.690   8.573  1.00  0.00     0.023 C 
HETATM   23  C25 UNL     1       2.120   7.606   7.496  1.00  0.00     0.023 C 
HETATM   24  C26 UNL     1       1.130   6.752   9.706  1.00  0.00     0.009 C 
HETATM   25  C27 UNL     1       0.307   8.070   9.752  1.00  0.00     0.007 C 
HETATM   26  C28 UNL     1      -0.915   8.102  10.670  1.00  0.00     0.011 C 
HETATM   27  C29 UNL     1      -0.630   7.662  12.132  1.00  0.00    -0.028 C 
HETATM   28  C30 UNL     1       0.339   8.697  12.758  1.00  0.00     0.016 C 
HETATM   29  C31 UNL     1      -4.075   6.140  13.736  1.00  0.00     0.024 C 
HETATM   30  C32 UNL     1      -5.350   6.849  13.252  1.00  0.00     0.029 C 
ENDROOT
BRANCH   1  31
HETATM   31  C3  UNL     1      -7.109   5.025  13.171  1.00  0.00     0.267 C 
HETATM   32  O2  UNL     1      -8.272   4.805  12.859  1.00  0.00    -0.264 OA
BRANCH  31  33
HETATM   33  O1  UNL     1      -6.064   4.203  12.865  1.00  0.00    -0.321 OA
BRANCH  33  34
HETATM   34  C2  UNL     1      -6.436   2.983  12.214  1.00  0.00     0.174 C 
HETATM   35  C1  UNL     1      -5.248   2.492  11.410  1.00  0.00     0.034 C 
ENDBRANCH  33  34
ENDBRANCH  31  33
ENDBRANCH   1  31
TORSDOF 3
ENDMDL
