MODEL 1
REMARK minimizedAffinity -8.48610115
REMARK  14 active torsions:
REMARK  status: ('A' for Active; 'I' for Inactive)
REMARK    1  A    between atoms: C2_2  and  C3_3 
REMARK    2  A    between atoms: C2_2  and  C26_30 
REMARK    3  A    between atoms: C4_4  and  C5_5 
REMARK    4  A    between atoms: C6_6  and  C7_7 
REMARK    5  A    between atoms: C6_6  and  C9_9 
REMARK    6  A    between atoms: C13_13  and  C14_14 
REMARK    7  A    between atoms: C14_14  and  C15_15 
REMARK    8  A    between atoms: C15_15  and  C16_16 
REMARK    9  A    between atoms: C16_16  and  O1_17 
REMARK   10  A    between atoms: C18_19  and  C20_21 
REMARK   11  A    between atoms: C23_25  and  O3_27 
REMARK   12  A    between atoms: C25_28  and  O4_29 
REMARK   13  A    between atoms: C26_30  and  C27_31 
REMARK   14  A    between atoms: C27_31  and  C28_32 
ROOT
HETATM    1  C9  UNL     1      -1.540   6.080  12.709  1.00  0.00     0.044 C 
HETATM    2  C10 UNL     1      -1.982   7.499  12.354  1.00  0.00     0.013 C 
HETATM    3  C11 UNL     1      -0.806   8.377  12.781  1.00  0.00     0.017 C 
HETATM    4  C12 UNL     1       0.491   7.485  12.751  1.00  0.00     0.024 C 
HETATM    5  C13 UNL     1       1.536   8.219  11.783  1.00  0.00     0.029 C 
HETATM    6  C17 UNL     1       2.978   7.866  12.153  1.00  0.00    -0.066 C 
HETATM    7  C18 UNL     1       3.847   7.044  11.523  1.00  0.00    -0.021 C 
HETATM    8  C19 UNL     1       5.283   6.826  11.910  1.00  0.00     0.052 C 
HETATM    9  C21 UNL     1       3.337   8.523  13.483  1.00  0.00     0.038 C 
HETATM   10  C22 UNL     1       2.144   8.545  14.460  1.00  0.00     0.042 C 
HETATM   11  C23 UNL     1       1.162   7.371  14.225  1.00  0.00     0.065 C 
HETATM   12  C24 UNL     1       0.221   7.293  15.440  1.00  0.00     0.047 C 
HETATM   13  C25 UNL     1      -0.059   6.093  12.270  1.00  0.00     0.138 C 
ENDROOT
BRANCH   5  14
HETATM   14  C14 UNL     1       1.193   8.373  10.274  1.00  0.00     0.012 C 
BRANCH  14  15
HETATM   15  C15 UNL     1       1.827   7.315   9.350  1.00  0.00     0.027 C 
BRANCH  15  16
HETATM   16  C16 UNL     1       1.824   7.657   7.864  1.00  0.00     0.164 C 
BRANCH  16  17
HETATM   17  O1  UNL     1       2.770   8.673   7.569  1.00  0.00    -0.401 OA
HETATM   18  H23 UNL     1       2.574   9.432   8.142  1.00  0.00     0.209 HD
ENDBRANCH  16  17
ENDBRANCH  15  16
ENDBRANCH  14  15
ENDBRANCH   5  14
BRANCH  11  19
HETATM   19  O3  UNL     1       1.979   6.186  14.321  1.00  0.00    -0.389 OA
HETATM   20  H35 UNL     1       1.403   5.415  14.452  1.00  0.00     0.210 HD
ENDBRANCH  11  19
BRANCH  13  21
HETATM   21  O4  UNL     1      -0.020   5.939  10.857  1.00  0.00    -0.394 OA
HETATM   22  H37 UNL     1       0.861   5.553  10.649  1.00  0.00     0.210 HD
ENDBRANCH  13  21
BRANCH   1  23
HETATM   23  C6  UNL     1      -2.385   4.921  12.171  1.00  0.00    -0.074 C 
HETATM   24  C5  UNL     1      -3.605   4.618  12.673  1.00  0.00     0.003 C 
BRANCH  24  25
HETATM   25  C4  UNL     1      -4.285   5.260  13.785  1.00  0.00     0.001 C 
HETATM   26  C3  UNL     1      -5.046   6.352  13.621  1.00  0.00     0.006 C 
BRANCH  26  27
HETATM   27  C2  UNL     1      -5.781   7.087  14.643  1.00  0.00    -0.067 C 
HETATM   28  C1  UNL     1      -5.875   8.426  14.535  1.00  0.00     0.019 C 
BRANCH  27  29
HETATM   29  C26 UNL     1      -6.417   6.390  15.833  1.00  0.00     0.041 C 
BRANCH  29  30
HETATM   30  C27 UNL     1      -7.850   5.899  15.568  1.00  0.00     0.032 C 
BRANCH  30  31
HETATM   31  C28 UNL     1      -8.330   6.135  14.162  1.00  0.00    -0.024 C 
HETATM   32  C29 UNL     1      -8.308   5.275  13.125  1.00  0.00    -0.091 C 
HETATM   33  C30 UNL     1      -7.822   3.853  13.189  1.00  0.00     0.042 C 
HETATM   34  C31 UNL     1      -8.812   5.691  11.767  1.00  0.00     0.042 C 
ENDBRANCH  30  31
ENDBRANCH  29  30
ENDBRANCH  27  29
ENDBRANCH  26  27
ENDBRANCH  24  25
BRANCH  23  35
HETATM   35  C7  UNL     1      -1.769   4.131  11.018  1.00  0.00     0.030 C 
HETATM   36  C8  UNL     1      -1.371   2.679  11.272  1.00  0.00     0.010 C 
ENDBRANCH  23  35
ENDBRANCH   1  23
BRANCH   7  37
HETATM   37  C20 UNL     1       3.456   6.198  10.363  1.00  0.00     0.265 C 
HETATM   38  O2  UNL     1       4.226   5.410   9.827  1.00  0.00    -0.302 OA
ENDBRANCH   7  37
TORSDOF 14
ENDMDL
