MODEL 1
REMARK minimizedAffinity -8.24233913
REMARK CNNscore 0.358759642
REMARK CNNaffinity 7.29213333
REMARK  19 active torsions:
REMARK  status: ('A' for Active; 'I' for Inactive)
REMARK    1  A    between atoms: C19_20  and  O2_21 
REMARK    2  A    between atoms: C19_20  and  C20_22 
REMARK    3  A    between atoms: C20_22  and  C21_24 
REMARK    4  A    between atoms: C21_24  and  O4_25 
REMARK    5  A    between atoms: O4_25  and  C22_26 
REMARK    6  A    between atoms: C22_26  and  C23_28 
REMARK    7  A    between atoms: C23_28  and  C24_29 
REMARK    8  A    between atoms: C24_29  and  C25_30 
REMARK       I    between atoms: C25_30  and  N1_32 
REMARK    9  A    between atoms: N1_32  and  C26_33 
REMARK   10  A    between atoms: C26_33  and  C27_34 
REMARK   11  A    between atoms: C27_34  and  C28_35 
REMARK   12  A    between atoms: C28_35  and  C29_36 
REMARK   13  A    between atoms: C29_36  and  C30_37 
REMARK   14  A    between atoms: C30_37  and  C31_38 
REMARK       I    between atoms: C31_38  and  N2_40 
REMARK   15  A    between atoms: N2_40  and  C32_41 
REMARK   16  A    between atoms: C32_41  and  C33_42 
REMARK   17  A    between atoms: C32_41  and  C40_49 
REMARK   18  A    between atoms: C33_42  and  C34_43 
REMARK   19  A    between atoms: C40_49  and  O9_51 
ROOT
HETATM    1  C22 UNL     1       2.046   5.533  11.247  1.00  0.00     0.259 C 
HETATM    2  O5  UNL     1       2.003   4.766  10.293  1.00  0.00    -0.265 OA
ENDROOT
BRANCH   1   3
HETATM    3  O4  UNL     1       1.236   5.451  12.332  1.00  0.00    -0.314 OA
BRANCH   3   4
HETATM    4  C21 UNL     1       0.687   6.699  12.767  1.00  0.00     0.260 C 
BRANCH   4   5
HETATM    5  C20 UNL     1      -0.507   6.421  13.677  1.00  0.00     0.185 C 
HETATM    6  O3  UNL     1      -0.391   6.410  14.905  1.00  0.00    -0.292 OA
BRANCH   5   7
HETATM    7  C19 UNL     1      -1.843   6.050  12.996  1.00  0.00     0.128 C 
HETATM    8  C14 UNL     1      -3.123   6.105  13.895  1.00  0.00    -0.002 C 
HETATM    9  C13 UNL     1      -3.751   7.505  14.103  1.00  0.00     0.013 C 
HETATM   10  C15 UNL     1      -2.842   5.423  15.261  1.00  0.00     0.019 C 
HETATM   11  C16 UNL     1      -4.095   5.291  13.016  1.00  0.00     0.002 C 
HETATM   12  C12 UNL     1      -5.293   7.550  13.951  1.00  0.00     0.007 C 
HETATM   13  C11 UNL     1      -5.986   6.267  14.466  1.00  0.00     0.002 C 
HETATM   14  C2  UNL     1      -7.556   6.323  14.706  1.00  0.00    -0.016 C 
HETATM   15  C10 UNL     1      -5.485   5.031  13.638  1.00  0.00    -0.004 C 
HETATM   16  C1  UNL     1      -7.865   5.468  15.967  1.00  0.00     0.020 C 
HETATM   17  C3  UNL     1      -8.033   7.781  14.975  1.00  0.00     0.022 C 
HETATM   18  C7  UNL     1      -8.376   5.728  13.563  1.00  0.00    -0.068 C 
HETATM   19  C4  UNL     1      -9.546   7.930  15.053  1.00  0.00     0.084 C 
HETATM   20  C5  UNL     1     -10.173   7.411  13.786  1.00  0.00     0.149 C 
HETATM   21  O1  UNL     1     -11.213   7.874  13.326  1.00  0.00    -0.293 OA
HETATM   22  C6  UNL     1      -9.537   6.248  13.123  1.00  0.00     0.053 C 
HETATM   23  C8  UNL     1      -7.863   4.451  12.963  1.00  0.00     0.035 C 
HETATM   24  C9  UNL     1      -6.437   4.634  12.496  1.00  0.00     0.010 C 
HETATM   25  C17 UNL     1      -3.291   4.072  12.583  1.00  0.00     0.009 C 
HETATM   26  C18 UNL     1      -1.845   4.586  12.469  1.00  0.00     0.047 C 
BRANCH   7  27
HETATM   27  O2  UNL     1      -1.992   6.921  11.869  1.00  0.00    -0.381 OA
HETATM   28  H27 UNL     1      -1.291   6.701  11.227  1.00  0.00     0.211 HD
ENDBRANCH   7  27
ENDBRANCH   5   7
ENDBRANCH   4   5
ENDBRANCH   3   4
ENDBRANCH   1   3
BRANCH   1  29
HETATM   29  C23 UNL     1       2.931   6.758  11.299  1.00  0.00     0.120 C 
BRANCH  29  30
HETATM   30  C24 UNL     1       4.331   6.542  10.733  1.00  0.00     0.112 C 
BRANCH  30  31
HETATM   31  C25 UNL     1       5.193   7.781  10.865  1.00  0.00     0.217 C 
HETATM   32  O6  UNL     1       4.929   8.844  10.314  1.00  0.00    -0.274 OA
HETATM   33  N1  UNL     1       6.283   7.594  11.686  1.00  0.00    -0.361 N 
HETATM   34  H34 UNL     1       6.422   6.692  12.124  1.00  0.00     0.162 HD
BRANCH  33  35
HETATM   35  C26 UNL     1       7.152   8.688  12.072  1.00  0.00     0.122 C 
BRANCH  35  36
HETATM   36  C27 UNL     1       7.645   8.497  13.504  1.00  0.00     0.020 C 
BRANCH  36  37
HETATM   37  C28 UNL     1       9.060   9.031  13.740  1.00  0.00     0.002 C 
BRANCH  37  38
HETATM   38  C29 UNL     1       9.780   8.314  14.888  1.00  0.00     0.009 C 
BRANCH  38  39
HETATM   39  C30 UNL     1       8.925   8.236  16.153  1.00  0.00     0.103 C 
BRANCH  39  40
HETATM   40  C31 UNL     1       9.171   9.381  17.121  1.00  0.00     0.218 C 
HETATM   41  O7  UNL     1       8.431   9.665  18.054  1.00  0.00    -0.274 OA
HETATM   42  N2  UNL     1      10.325  10.082  16.836  1.00  0.00    -0.346 N 
HETATM   43  H45 UNL     1      10.656  10.029  15.879  1.00  0.00     0.163 HD
BRANCH  42  44
HETATM   44  C32 UNL     1      10.623  11.336  17.545  1.00  0.00     0.186 C 
BRANCH  44  45
HETATM   45  C33 UNL     1       9.373  12.221  17.592  1.00  0.00     0.074 C 
BRANCH  45  46
HETATM   46  C34 UNL     1       9.174  13.067  16.358  1.00  0.00    -0.056 A 
HETATM   47  C35 UNL     1       9.367  14.455  16.407  1.00  0.00     0.007 A 
HETATM   48  C36 UNL     1       9.166  15.237  15.269  1.00  0.00     0.001 A 
HETATM   49  C37 UNL     1       8.774  14.641  14.071  1.00  0.00     0.000 A 
HETATM   50  C38 UNL     1       8.582  13.263  14.011  1.00  0.00     0.001 A 
HETATM   51  C39 UNL     1       8.780  12.477  15.148  1.00  0.00     0.007 A 
ENDBRANCH  45  46
ENDBRANCH  44  45
BRANCH  44  52
HETATM   52  C40 UNL     1      11.050  10.957  18.961  1.00  0.00     0.163 C 
HETATM   53  O8  UNL     1      10.482  11.298  19.991  1.00  0.00    -0.648 OA
BRANCH  52  54
HETATM   54  O9  UNL     1      12.156  10.192  19.007  1.00  0.00    -0.775 OA
HETATM   55  H54 UNL     1      12.304  10.013  19.957  1.00  0.00     0.167 HD
ENDBRANCH  52  54
ENDBRANCH  44  52
ENDBRANCH  42  44
ENDBRANCH  39  40
ENDBRANCH  38  39
ENDBRANCH  37  38
ENDBRANCH  36  37
ENDBRANCH  35  36
ENDBRANCH  33  35
ENDBRANCH  30  31
ENDBRANCH  29  30
ENDBRANCH   1  29
TORSDOF 19
ENDMDL
