MODEL 1
REMARK minimizedAffinity -8.8796339
REMARK CNNscore 0.646503329
REMARK CNNaffinity 6.76122522
REMARK  9 active torsions:
REMARK  status: ('A' for Active; 'I' for Inactive)
REMARK    1  A    between atoms: C4_4  and  C5_5 
REMARK    2  A    between atoms: C5_5  and  C6_6 
REMARK    3  A    between atoms: C6_6  and  C7_7 
REMARK    4  A    between atoms: C7_7  and  C9_9 
REMARK    5  A    between atoms: C16_16  and  O1_17 
REMARK    6  A    between atoms: C25_27  and  C27_29 
REMARK    7  A    between atoms: C27_29  and  O4_31 
REMARK    8  A    between atoms: C28_32  and  O5_33 
REMARK    9  A    between atoms: C30_35  and  O6_36 
ROOT
HETATM    1  C9  UNL     1      -6.113   6.273  14.815  1.00  0.00    -0.002 C 
HETATM    2  C10 UNL     1      -6.276   5.104  13.818  1.00  0.00     0.007 C 
HETATM    3  C11 UNL     1      -4.913   4.937  13.107  1.00  0.00     0.015 C 
HETATM    4  C12 UNL     1      -3.909   5.755  13.953  1.00  0.00    -0.005 C 
HETATM    5  C13 UNL     1      -3.465   4.846  15.141  1.00  0.00     0.021 C 
HETATM    6  C14 UNL     1      -2.603   6.262  13.357  1.00  0.00     0.003 C 
HETATM    7  C15 UNL     1      -1.993   7.396  13.808  1.00  0.00    -0.030 C 
HETATM    8  C16 UNL     1      -2.711   8.284  14.857  1.00  0.00     0.149 C 
HETATM    9  C17 UNL     1      -4.088   7.811  15.374  1.00  0.00     0.047 C 
HETATM   10  C18 UNL     1      -4.825   6.986  14.321  1.00  0.00    -0.026 C 
HETATM   11  C19 UNL     1      -5.116   7.894  13.089  1.00  0.00     0.016 C 
HETATM   12  C20 UNL     1      -0.630   7.931  13.208  1.00  0.00     0.014 C 
HETATM   13  C21 UNL     1      -1.020   9.193  12.403  1.00  0.00     0.023 C 
HETATM   14  C22 UNL     1       0.031   6.831  12.307  1.00  0.00     0.029 C 
HETATM   15  C23 UNL     1      -0.986   6.173  11.376  1.00  0.00     0.090 C 
HETATM   16  C24 UNL     1      -2.008   5.477  12.231  1.00  0.00     0.157 C 
HETATM   17  O2  UNL     1      -2.356   4.326  11.990  1.00  0.00    -0.293 OA
HETATM   18  C25 UNL     1       1.413   7.196  11.639  1.00  0.00     0.072 C 
HETATM   19  C26 UNL     1       2.217   5.863  11.526  1.00  0.00     0.030 C 
HETATM   20  C28 UNL     1       2.239   8.171  12.523  1.00  0.00     0.139 C 
HETATM   21  C29 UNL     1       1.906   8.021  14.004  1.00  0.00     0.065 C 
HETATM   22  C30 UNL     1       0.416   8.226  14.351  1.00  0.00     0.133 C 
ENDROOT
BRANCH   1  23
HETATM   23  C7  UNL     1      -7.388   7.060  15.229  1.00  0.00    -0.014 C 
HETATM   24  C8  UNL     1      -7.535   7.033  16.760  1.00  0.00     0.010 C 
BRANCH  23  25
HETATM   25  C6  UNL     1      -8.750   6.820  14.537  1.00  0.00     0.008 C 
BRANCH  25  26
HETATM   26  C5  UNL     1      -9.992   7.635  14.931  1.00  0.00     0.028 C 
BRANCH  26  27
HETATM   27  C4  UNL     1     -11.287   7.097  14.390  1.00  0.00    -0.025 C 
HETATM   28  C2  UNL     1     -12.079   7.635  13.442  1.00  0.00    -0.091 C 
HETATM   29  C1  UNL     1     -11.834   8.939  12.735  1.00  0.00     0.042 C 
HETATM   30  C3  UNL     1     -13.340   6.929  13.011  1.00  0.00     0.042 C 
ENDBRANCH  26  27
ENDBRANCH  25  26
ENDBRANCH  23  25
ENDBRANCH   1  23
BRANCH   8  31
HETATM   31  O1  UNL     1      -1.904   8.463  16.012  1.00  0.00    -0.391 OA
HETATM   32  H25 UNL     1      -1.276   9.178  15.777  1.00  0.00     0.210 HD
ENDBRANCH   8  31
BRANCH  22  33
HETATM   33  O6  UNL     1       0.227   9.538  14.903  1.00  0.00    -0.394 OA
HETATM   34  H46 UNL     1       0.896   9.663  15.600  1.00  0.00     0.210 HD
ENDBRANCH  22  33
BRANCH  18  35
HETATM   35  C27 UNL     1       1.391   7.754  10.216  1.00  0.00     0.151 C 
HETATM   36  O3  UNL     1       0.724   8.709   9.841  1.00  0.00    -0.649 OA
BRANCH  35  37
HETATM   37  O4  UNL     1       2.170   7.120   9.329  1.00  0.00    -0.776 OA
HETATM   38  H40 UNL     1       1.966   7.568   8.480  1.00  0.00     0.167 HD
ENDBRANCH  35  37
ENDBRANCH  18  35
BRANCH  20  39
HETATM   39  O5  UNL     1       2.045   9.534  12.159  1.00  0.00    -0.394 OA
HETATM   40  H42 UNL     1       2.639  10.086  12.698  1.00  0.00     0.210 HD
ENDBRANCH  20  39
TORSDOF 9
ENDMDL
