MODEL 1
REMARK minimizedAffinity -7.30106163
REMARK CNNscore 0.553864002
REMARK CNNaffinity 6.77615404
REMARK  20 active torsions:
REMARK  status: ('A' for Active; 'I' for Inactive)
REMARK    1  A    between atoms: C2_2  and  C18_26 
REMARK    2  A    between atoms: C3_3  and  C4_4 
REMARK    3  A    between atoms: C4_4  and  O2_6 
REMARK    4  A    between atoms: O2_6  and  C5_7 
REMARK    5  A    between atoms: C5_7  and  C6_8 
REMARK    6  A    between atoms: C6_8  and  C7_9 
REMARK    7  A    between atoms: C7_9  and  C8_10 
REMARK    8  A    between atoms: C8_10  and  C9_11 
REMARK    9  A    between atoms: C9_11  and  C10_12 
REMARK   10  A    between atoms: C10_12  and  C11_13 
REMARK   11  A    between atoms: C11_13  and  C12_14 
REMARK       I    between atoms: C12_14  and  N1_16 
REMARK   12  A    between atoms: N1_16  and  C13_17 
REMARK   13  A    between atoms: C18_26  and  C19_27 
REMARK   14  A    between atoms: C21_29  and  O5_30 
REMARK   15  A    between atoms: C22_31  and  O6_32 
REMARK   16  A    between atoms: C22_31  and  C23_33 
REMARK   17  A    between atoms: C23_33  and  C24_34 
REMARK   18  A    between atoms: C25_35  and  C26_36 
REMARK   19  A    between atoms: C26_36  and  C28_38 
REMARK   20  A    between atoms: C28_38  and  O7_40 
ROOT
HETATM    1  C4  UNL     1       0.157   8.324   9.354  1.00  0.00     0.283 C 
HETATM    2  O1  UNL     1      -0.279   8.129   8.233  1.00  0.00    -0.260 OA
ENDROOT
BRANCH   1   3
HETATM    3  C3  UNL     1       1.487   7.904   9.858  1.00  0.00     0.084 C 
HETATM    4  C2  UNL     1       2.651   8.004   9.184  1.00  0.00    -0.076 C 
HETATM    5  C1  UNL     1       2.778   8.620   7.810  1.00  0.00     0.043 C 
BRANCH   4   6
HETATM    6  C18 UNL     1       3.995   7.542   9.741  1.00  0.00     0.066 C 
BRANCH   6   7
HETATM    7  C19 UNL     1       4.937   8.574  10.406  1.00  0.00     0.128 C 
HETATM    8  C20 UNL     1       4.426   8.984  11.790  1.00  0.00     0.067 C 
HETATM    9  C21 UNL     1       4.586   7.864  12.820  1.00  0.00     0.157 C 
HETATM   10  C22 UNL     1       6.019   7.246  12.788  1.00  0.00     0.108 C 
HETATM   11  C30 UNL     1       6.881   7.972  11.729  1.00  0.00     0.209 C 
HETATM   12  O8  UNL     1       6.261   8.034  10.442  1.00  0.00    -0.382 OA
BRANCH   9  13
HETATM   13  O5  UNL     1       4.211   8.423  14.078  1.00  0.00    -0.392 OA
HETATM   14  H28 UNL     1       3.904   7.684  14.648  1.00  0.00     0.210 HD
ENDBRANCH   9  13
BRANCH  10  15
HETATM   15  O6  UNL     1       5.907   5.871  12.347  1.00  0.00    -0.385 OA
HETATM   16  H29 UNL     1       5.283   5.418  12.942  1.00  0.00     0.210 HD
ENDBRANCH  10  15
BRANCH  10  17
HETATM   17  C23 UNL     1       6.801   7.249  14.133  1.00  0.00     0.069 C 
BRANCH  17  18
HETATM   18  C24 UNL     1       7.775   8.388  14.282  1.00  0.00    -0.027 C 
HETATM   19  C25 UNL     1       8.958   8.283  14.907  1.00  0.00    -0.024 C 
BRANCH  19  20
HETATM   20  C26 UNL     1      10.017   9.362  14.847  1.00  0.00     0.032 C 
HETATM   21  C27 UNL     1       9.934  10.121  13.524  1.00  0.00     0.017 C 
BRANCH  20  22
HETATM   22  C28 UNL     1       9.936  10.299  16.082  1.00  0.00     0.121 C 
HETATM   23  C29 UNL     1       9.342   9.672  17.339  1.00  0.00     0.040 C 
BRANCH  22  24
HETATM   24  O7  UNL     1      11.256  10.778  16.398  1.00  0.00    -0.395 OA
HETATM   25  H42 UNL     1      11.157  11.431  17.114  1.00  0.00     0.210 HD
ENDBRANCH  22  24
ENDBRANCH  20  22
ENDBRANCH  19  20
ENDBRANCH  17  18
ENDBRANCH  10  17
ENDBRANCH   6   7
ENDBRANCH   4   6
ENDBRANCH   1   3
BRANCH   1  26
HETATM   26  O2  UNL     1      -0.479   8.975  10.363  1.00  0.00    -0.318 OA
BRANCH  26  27
HETATM   27  C5  UNL     1      -0.681   8.204  11.559  1.00  0.00     0.179 C 
BRANCH  27  28
HETATM   28  C6  UNL     1      -0.113   8.961  12.760  1.00  0.00     0.027 C 
BRANCH  28  29
HETATM   29  C7  UNL     1      -0.274   8.157  14.056  1.00  0.00     0.002 C 
BRANCH  29  30
HETATM   30  C8  UNL     1      -1.658   8.294  14.697  1.00  0.00     0.000 C 
BRANCH  30  31
HETATM   31  C9  UNL     1      -2.349   6.988  15.091  1.00  0.00     0.000 C 
BRANCH  31  32
HETATM   32  C10 UNL     1      -1.944   5.737  14.302  1.00  0.00     0.009 C 
BRANCH  32  33
HETATM   33  C11 UNL     1      -2.954   5.231  13.275  1.00  0.00     0.103 C 
BRANCH  33  34
HETATM   34  C12 UNL     1      -4.243   6.035  13.192  1.00  0.00     0.222 C 
HETATM   35  O3  UNL     1      -4.282   7.193  12.802  1.00  0.00    -0.273 OA
HETATM   36  N1  UNL     1      -5.327   5.283  13.597  1.00  0.00    -0.321 N 
HETATM   37  H19 UNL     1      -5.170   4.287  13.739  1.00  0.00     0.169 HD
BRANCH  36  38
HETATM   38  C13 UNL     1      -6.640   5.654  13.720  1.00  0.00     0.123 A 
HETATM   39  C14 UNL     1      -7.324   6.659  14.281  1.00  0.00     0.071 A 
HETATM   40  S1  UNL     1      -6.910   8.041  15.194  1.00  0.00    -0.049 SA
HETATM   41  C16 UNL     1      -8.735   6.483  14.079  1.00  0.00     0.062 A 
HETATM   42  S2  UNL     1      -8.869   8.699  15.422  1.00  0.00    -0.062 SA
HETATM   43  C15 UNL     1      -9.595   7.372  14.561  1.00  0.00     0.088 A 
HETATM   44  N2  UNL     1      -8.917   5.343  13.377  1.00  0.00    -0.320 N 
HETATM   45  C17 UNL     1      -7.698   4.766  13.109  1.00  0.00     0.274 A 
HETATM   46  H21 UNL     1      -9.797   4.955  13.067  1.00  0.00     0.169 HD
HETATM   47  O4  UNL     1      -7.474   3.737  12.494  1.00  0.00    -0.266 OA
ENDBRANCH  36  38
ENDBRANCH  33  34
ENDBRANCH  32  33
ENDBRANCH  31  32
ENDBRANCH  30  31
ENDBRANCH  29  30
ENDBRANCH  28  29
ENDBRANCH  27  28
ENDBRANCH  26  27
ENDBRANCH   1  26
TORSDOF 20
ENDMDL
