MODEL 1
REMARK minimizedAffinity -7.68336248
REMARK CNNscore 0.685968697
REMARK CNNaffinity 6.74832153
REMARK  9 active torsions:
REMARK  status: ('A' for Active; 'I' for Inactive)
REMARK    1  A    between atoms: C2_2  and  C3_3 
REMARK    2  A    between atoms: C2_2  and  C9_12 
REMARK    3  A    between atoms: C3_3  and  C4_4 
REMARK    4  A    between atoms: C4_4  and  C5_5 
REMARK    5  A    between atoms: C5_5  and  O1_6 
REMARK    6  A    between atoms: C5_5  and  C6_7 
REMARK    7  A    between atoms: C6_7  and  O2_9 
REMARK    8  A    between atoms: C6_7  and  C8_10 
REMARK    9  A    between atoms: C8_10  and  O3_11 
ROOT
HETATM    1  C9  UNL     1      -9.537   6.918  15.091  1.00  0.00    -0.002 C 
HETATM    2  C10 UNL     1      -9.598   6.497  13.608  1.00  0.00     0.007 C 
HETATM    3  C11 UNL     1      -8.199   6.069  13.178  1.00  0.00     0.015 C 
HETATM    4  C12 UNL     1      -7.311   6.072  14.440  1.00  0.00    -0.005 C 
HETATM    5  C13 UNL     1      -7.370   4.675  15.119  1.00  0.00     0.021 C 
HETATM    6  C14 UNL     1      -5.857   6.421  14.069  1.00  0.00    -0.000 C 
HETATM    7  C15 UNL     1      -5.259   7.605  14.351  1.00  0.00    -0.060 C 
HETATM    8  C16 UNL     1      -6.056   8.746  14.958  1.00  0.00     0.036 C 
HETATM    9  C17 UNL     1      -7.570   8.567  14.877  1.00  0.00     0.015 C 
HETATM   10  C18 UNL     1      -8.010   7.166  15.350  1.00  0.00    -0.028 C 
HETATM   11  C19 UNL     1      -7.640   6.985  16.842  1.00  0.00     0.016 C 
HETATM   12  C20 UNL     1      -3.768   7.901  14.038  1.00  0.00    -0.014 C 
HETATM   13  C21 UNL     1      -3.748   8.594  12.657  1.00  0.00     0.020 C 
HETATM   14  C22 UNL     1      -3.141   8.841  15.103  1.00  0.00     0.021 C 
HETATM   15  C23 UNL     1      -1.643   9.036  14.936  1.00  0.00     0.080 C 
HETATM   16  C24 UNL     1      -0.926   7.713  14.997  1.00  0.00     0.135 C 
HETATM   17  O4  UNL     1       0.073   7.588  15.706  1.00  0.00    -0.297 OA
HETATM   18  C25 UNL     1      -1.424   6.593  14.070  1.00  0.00     0.018 C 
HETATM   19  C26 UNL     1      -0.860   5.252  14.609  1.00  0.00     0.023 C 
HETATM   20  C27 UNL     1      -0.803   6.815  12.684  1.00  0.00     0.023 C 
HETATM   21  C28 UNL     1      -2.992   6.541  14.105  1.00  0.00     0.020 C 
HETATM   22  C29 UNL     1      -3.591   5.554  13.101  1.00  0.00     0.090 C 
HETATM   23  C30 UNL     1      -5.086   5.407  13.262  1.00  0.00     0.157 C 
HETATM   24  O5  UNL     1      -5.663   4.488  12.683  1.00  0.00    -0.293 OA
ENDROOT
BRANCH   1  25
HETATM   25  C2  UNL     1     -10.574   8.045  15.412  1.00  0.00    -0.014 C 
HETATM   26  C1  UNL     1     -11.087   8.747  14.149  1.00  0.00     0.010 C 
BRANCH  25  27
HETATM   27  C3  UNL     1      -9.948   9.089  16.383  1.00  0.00     0.007 C 
BRANCH  27  28
HETATM   28  C4  UNL     1     -10.851   9.464  17.568  1.00  0.00     0.035 C 
BRANCH  28  29
HETATM   29  C5  UNL     1     -12.361   9.496  17.261  1.00  0.00     0.154 C 
BRANCH  29  30
HETATM   30  O1  UNL     1     -13.040   8.859  18.357  1.00  0.00    -0.392 OA
HETATM   31  H10 UNL     1     -13.990   8.828  18.110  1.00  0.00     0.210 HD
ENDBRANCH  29  30
BRANCH  29  32
HETATM   32  C6  UNL     1     -13.001  10.896  17.013  1.00  0.00     0.101 C 
HETATM   33  C7  UNL     1     -13.851  10.948  15.745  1.00  0.00     0.051 C 
BRANCH  32  34
HETATM   34  O2  UNL     1     -11.959  11.883  16.902  1.00  0.00    -0.385 OA
HETATM   35  H14 UNL     1     -11.197  11.516  17.394  1.00  0.00     0.210 HD
ENDBRANCH  32  34
BRANCH  32  36
HETATM   36  C8  UNL     1     -13.869  11.312  18.223  1.00  0.00     0.204 C 
BRANCH  36  37
HETATM   37  O3  UNL     1     -13.065  11.418  19.402  1.00  0.00    -0.398 OA
HETATM   38  H17 UNL     1     -12.526  12.223  19.269  1.00  0.00     0.209 HD
ENDBRANCH  36  37
ENDBRANCH  32  36
ENDBRANCH  29  32
ENDBRANCH  28  29
ENDBRANCH  27  28
ENDBRANCH  25  27
ENDBRANCH   1  25
TORSDOF 9
ENDMDL
