MODEL 1
REMARK minimizedAffinity -9.4270916
REMARK CNNscore 0.398626328
REMARK CNNaffinity 7.36621094
REMARK  12 active torsions:
REMARK  status: ('A' for Active; 'I' for Inactive)
REMARK    1  A    between atoms: C3_3  and  O1_4 
REMARK    2  A    between atoms: N1_14  and  O2_16 
REMARK    3  A    between atoms: O2_16  and  C13_17 
REMARK    4  A    between atoms: C13_17  and  C14_18 
REMARK       I    between atoms: C14_18  and  N2_20 
REMARK    5  A    between atoms: N2_20  and  C15_21 
REMARK    6  A    between atoms: C15_21  and  C16_22 
REMARK    7  A    between atoms: C15_21  and  C23_33 
REMARK       I    between atoms: C16_22  and  N3_24 
REMARK    8  A    between atoms: N3_24  and  C17_25 
REMARK    9  A    between atoms: C17_25  and  C18_26 
REMARK   10  A    between atoms: C17_25  and  C19_29 
REMARK   11  A    between atoms: C18_26  and  O6_28 
REMARK   12  A    between atoms: C19_29  and  C21_31 
ROOT
HETATM    1  C1  UNL     1      -5.381  50.354 -10.094  1.00  0.00     0.015 C 
HETATM    2  C2  UNL     1      -4.397  50.851 -10.573  1.00  0.00    -0.078 C 
HETATM    3  C3  UNL     1      -3.203  51.488 -11.146  1.00  0.00     0.128 C 
HETATM    4  C4  UNL     1      -1.974  51.398 -10.211  1.00  0.00     0.052 C 
HETATM    5  C5  UNL     1      -0.738  51.394 -11.142  1.00  0.00     0.010 C 
HETATM    6  C6  UNL     1      -1.312  51.506 -12.559  1.00  0.00     0.002 C 
HETATM    7  C7  UNL     1      -0.420  51.041 -13.731  1.00  0.00    -0.004 C 
HETATM    8  C8  UNL     1       0.641  52.133 -13.953  1.00  0.00     0.010 C 
HETATM    9  C9  UNL     1       1.510  51.875 -15.164  1.00  0.00     0.035 C 
HETATM   10  C10 UNL     1       0.668  51.783 -16.406  1.00  0.00    -0.069 C 
HETATM   11  C11 UNL     1       0.976  52.543 -17.472  1.00  0.00     0.030 C 
HETATM   12  C12 UNL     1       0.306  52.356 -18.783  1.00  0.00     0.032 C 
HETATM   13  N1  UNL     1       0.652  53.152 -19.759  1.00  0.00    -0.271 N 
ATOM     14  H1  UNL     1       1.319  53.918 -19.668  1.00  0.00     0.194 HD
HETATM   15  C26 UNL     1      -0.672  51.207 -18.918  1.00  0.00     0.060 C 
HETATM   16  C27 UNL     1      -1.399  50.998 -17.598  1.00  0.00     0.020 C 
HETATM   17  C28 UNL     1      -0.455  50.753 -16.384  1.00  0.00    -0.016 C 
HETATM   18  C29 UNL     1       0.208  49.360 -16.548  1.00  0.00     0.020 C 
HETATM   19  C30 UNL     1      -1.269  50.730 -15.018  1.00  0.00     0.002 C 
HETATM   20  C31 UNL     1      -2.602  51.515 -14.971  1.00  0.00     0.007 C 
HETATM   21  C32 UNL     1      -3.484  51.120 -13.761  1.00  0.00     0.014 C 
HETATM   22  C33 UNL     1      -2.687  50.823 -12.467  1.00  0.00     0.003 C 
HETATM   23  C34 UNL     1      -2.569  49.279 -12.294  1.00  0.00     0.020 C 
ENDROOT
BRANCH   3  24
HETATM   24  O1  UNL     1      -3.482  52.887 -11.274  1.00  0.00    -0.377 OA
HETATM   25  H2  UNL     1      -3.678  53.097 -12.198  1.00  0.00     0.211 HD
ENDBRANCH   3  24
BRANCH  13  26
HETATM   26  O2  UNL     1      -0.012  52.818 -20.947  1.00  0.00    -0.271 OA
BRANCH  26  27
HETATM   27  C13 UNL     1       0.918  52.221 -21.846  1.00  0.00     0.303 C 
BRANCH  27  28
HETATM   28  C14 UNL     1       0.797  52.875 -23.218  1.00  0.00     0.244 C 
HETATM   29  O3  UNL     1       1.018  54.068 -23.410  1.00  0.00    -0.271 OA
HETATM   30  N2  UNL     1       0.357  52.026 -24.215  1.00  0.00    -0.346 N 
HETATM   31  H16 UNL     1      -0.149  51.200 -23.900  1.00  0.00     0.163 HD
BRANCH  30  32
HETATM   32  C15 UNL     1      -0.029  52.566 -25.516  1.00  0.00     0.180 C 
BRANCH  32  33
HETATM   33  C16 UNL     1      -1.520  52.203 -25.688  1.00  0.00     0.241 C 
HETATM   34  O4  UNL     1      -2.421  53.034 -25.571  1.00  0.00    -0.271 OA
HETATM   35  N3  UNL     1      -1.753  50.884 -26.006  1.00  0.00    -0.344 N 
HETATM   36  H18 UNL     1      -0.973  50.317 -26.326  1.00  0.00     0.163 HD
BRANCH  35  37
HETATM   37  C17 UNL     1      -3.097  50.372 -26.298  1.00  0.00     0.186 C 
BRANCH  37  38
HETATM   38  C18 UNL     1      -3.285  50.443 -27.812  1.00  0.00     0.163 C 
HETATM   39  O5  UNL     1      -3.657  49.525 -28.530  1.00  0.00    -0.648 OA
BRANCH  38  40
HETATM   40  O6  UNL     1      -3.003  51.646 -28.339  1.00  0.00    -0.775 OA
HETATM   41  H20 UNL     1      -3.162  51.540 -29.299  1.00  0.00     0.167 HD
ENDBRANCH  38  40
ENDBRANCH  37  38
BRANCH  37  42
HETATM   42  C19 UNL     1      -3.289  48.947 -25.729  1.00  0.00     0.014 C 
HETATM   43  C20 UNL     1      -4.451  48.199 -26.407  1.00  0.00     0.012 C 
BRANCH  42  44
HETATM   44  C21 UNL     1      -3.492  48.893 -24.202  1.00  0.00     0.002 C 
HETATM   45  C22 UNL     1      -2.396  49.594 -23.413  1.00  0.00     0.005 C 
ENDBRANCH  42  44
ENDBRANCH  37  42
ENDBRANCH  35  37
ENDBRANCH  32  33
BRANCH  32  46
HETATM   46  C23 UNL     1       0.820  51.969 -26.658  1.00  0.00     0.009 C 
HETATM   47  C24 UNL     1       2.320  52.067 -26.357  1.00  0.00     0.012 C 
HETATM   48  C25 UNL     1       0.456  50.500 -26.915  1.00  0.00     0.012 C 
ENDBRANCH  32  46
ENDBRANCH  30  32
ENDBRANCH  27  28
ENDBRANCH  26  27
ENDBRANCH  13  26
TORSDOF 12
ENDMDL
