MODEL 1
REMARK minimizedAffinity -5.92020607
REMARK CNNscore 0.507020354
REMARK CNNaffinity 4.92953634
REMARK  12 active torsions:
REMARK  status: ('A' for Active; 'I' for Inactive)
REMARK    1  A    between atoms: C3_3  and  O1_4 
REMARK    2  A    between atoms: O1_4  and  C4_5 
REMARK    3  A    between atoms: C5_7  and  C6_8 
REMARK    4  A    between atoms: C6_8  and  O3_9 
REMARK    5  A    between atoms: C7_10  and  O4_11 
REMARK    6  A    between atoms: C8_12  and  O5_13 
REMARK    7  A    between atoms: C9_14  and  O6_15 
REMARK    8  A    between atoms: C10_16  and  O7_17 
REMARK    9  A    between atoms: C15_22  and  O8_23 
REMARK   10  A    between atoms: C15_22  and  C16_24 
REMARK   11  A    between atoms: C17_25  and  C18_26 
REMARK   12  A    between atoms: C18_26  and  O9_28 
ROOT
HETATM    1  C1  UNL     1       0.192  12.836   2.832  1.00  0.00     0.016 C 
HETATM    2  C2  UNL     1      -0.235  13.843   3.910  1.00  0.00     0.052 C 
HETATM    3  C3  UNL     1      -1.528  14.584   3.524  1.00  0.00     0.160 C 
HETATM    4  C10 UNL     1      -2.076  15.378   4.749  1.00  0.00     0.148 C 
HETATM    5  C11 UNL     1      -1.034  15.682   5.836  1.00  0.00     0.046 C 
HETATM    6  C12 UNL     1       0.377  16.004   5.289  1.00  0.00    -0.010 C 
HETATM    7  C13 UNL     1       1.282  16.332   6.507  1.00  0.00     0.018 C 
HETATM    8  C14 UNL     1       0.310  17.305   4.449  1.00  0.00     0.018 C 
HETATM    9  C15 UNL     1       0.922  14.753   4.474  1.00  0.00     0.088 C 
ENDROOT
BRANCH   3  10
HETATM   10  O1  UNL     1      -1.316  15.379   2.353  1.00  0.00    -0.350 OA
BRANCH  10  11
HETATM   11  C4  UNL     1      -2.183  15.016   1.267  1.00  0.00     0.292 C 
HETATM   12  O2  UNL     1      -1.375  14.472   0.210  1.00  0.00    -0.348 OA
HETATM   13  C5  UNL     1      -1.025  15.385  -0.840  1.00  0.00     0.179 C 
HETATM   14  C7  UNL     1      -0.890  16.822  -0.320  1.00  0.00     0.180 C 
HETATM   15  C8  UNL     1      -2.289  17.296   0.078  1.00  0.00     0.183 C 
HETATM   16  C9  UNL     1      -3.060  16.232   0.875  1.00  0.00     0.204 C 
BRANCH  13  17
HETATM   17  C6  UNL     1       0.263  14.865  -1.482  1.00  0.00     0.198 C 
BRANCH  17  18
HETATM   18  O3  UNL     1       0.075  13.534  -1.961  1.00  0.00    -0.398 OA
HETATM   19  H10 UNL     1      -0.675  13.593  -2.585  1.00  0.00     0.209 HD
ENDBRANCH  17  18
ENDBRANCH  13  17
BRANCH  14  20
HETATM   20  O4  UNL     1      -0.367  17.732  -1.295  1.00  0.00    -0.390 OA
HETATM   21  H12 UNL     1       0.584  17.527  -1.380  1.00  0.00     0.210 HD
ENDBRANCH  14  20
BRANCH  15  22
HETATM   22  O5  UNL     1      -2.195  18.526   0.810  1.00  0.00    -0.390 OA
HETATM   23  H14 UNL     1      -1.633  19.106   0.260  1.00  0.00     0.210 HD
ENDBRANCH  15  22
BRANCH  16  24
HETATM   24  O6  UNL     1      -4.165  15.778   0.060  1.00  0.00    -0.388 OA
HETATM   25  H16 UNL     1      -4.835  16.485   0.098  1.00  0.00     0.210 HD
ENDBRANCH  16  24
ENDBRANCH  10  11
ENDBRANCH   3  10
BRANCH   4  26
HETATM   26  O7  UNL     1      -2.740  16.582   4.356  1.00  0.00    -0.393 OA
HETATM   27  H18 UNL     1      -3.060  17.021   5.164  1.00  0.00     0.210 HD
ENDBRANCH   4  26
BRANCH   9  28
HETATM   28  O8  UNL     1       1.550  13.862   5.439  1.00  0.00    -0.385 OA
HETATM   29  H27 UNL     1       2.123  13.254   4.939  1.00  0.00     0.211 HD
ENDBRANCH   9  28
BRANCH   9  30
HETATM   30  C16 UNL     1       2.080  15.156   3.579  1.00  0.00     0.010 C 
HETATM   31  C17 UNL     1       2.730  14.421   2.660  1.00  0.00     0.003 C 
BRANCH  31  32
HETATM   32  C18 UNL     1       3.866  14.878   1.787  1.00  0.00     0.136 C 
HETATM   33  C19 UNL     1       4.754  15.875   2.518  1.00  0.00     0.043 C 
BRANCH  32  34
HETATM   34  O9  UNL     1       4.649  13.768   1.366  1.00  0.00    -0.392 OA
HETATM   35  H34 UNL     1       5.383  14.118   0.835  1.00  0.00     0.210 HD
ENDBRANCH  32  34
ENDBRANCH  31  32
ENDBRANCH   9  30
TORSDOF 12
ENDMDL
