MODEL 1
REMARK minimizedAffinity -8.80097103
REMARK CNNscore 0.617344081
REMARK CNNaffinity 6.7366004
REMARK  12 active torsions:
REMARK  status: ('A' for Active; 'I' for Inactive)
REMARK    1  A    between atoms: C19_21  and  O3_22 
REMARK    2  A    between atoms: C19_21  and  C20_23 
REMARK    3  A    between atoms: C20_23  and  C21_25 
REMARK    4  A    between atoms: C21_25  and  O5_26 
REMARK    5  A    between atoms: O5_26  and  C22_27 
REMARK    6  A    between atoms: C22_27  and  C23_29 
REMARK    7  A    between atoms: C23_29  and  C24_30 
REMARK    8  A    between atoms: C24_30  and  C25_31 
REMARK       I    between atoms: C25_31  and  N1_33 
REMARK    9  A    between atoms: N1_33  and  C26_34 
REMARK   10  A    between atoms: C26_34  and  C27_35 
REMARK   11  A    between atoms: C30_38  and  C31_39 
REMARK   12  A    between atoms: C31_39  and  O9_41 
ROOT
HETATM    1  C1  UNL     1      -0.678   7.292  11.730  1.00  0.00     0.021 C 
HETATM    2  C2  UNL     1      -1.155   6.430  12.924  1.00  0.00    -0.009 C 
HETATM    3  C3  UNL     1      -0.104   5.328  13.228  1.00  0.00     0.022 C 
HETATM    4  C4  UNL     1       0.071   4.331  12.084  1.00  0.00     0.084 C 
HETATM    5  C5  UNL     1      -1.249   3.793  11.587  1.00  0.00     0.149 C 
HETATM    6  O1  UNL     1      -1.322   2.772  10.905  1.00  0.00    -0.293 OA
HETATM    7  C6  UNL     1      -2.492   4.526  11.924  1.00  0.00     0.053 C 
HETATM    8  C7  UNL     1      -2.466   5.719  12.546  1.00  0.00    -0.067 C 
HETATM    9  C8  UNL     1      -3.771   6.340  13.000  1.00  0.00     0.035 C 
HETATM   10  C9  UNL     1      -3.724   7.859  13.118  1.00  0.00     0.010 C 
HETATM   11  C10 UNL     1      -2.524   8.389  13.924  1.00  0.00     0.003 C 
HETATM   12  C11 UNL     1      -1.446   7.293  14.186  1.00  0.00     0.072 C 
HETATM   13  C12 UNL     1      -0.254   7.967  14.876  1.00  0.00     0.133 C 
HETATM   14  O2  UNL     1       0.892   7.954  14.434  1.00  0.00    -0.297 OA
HETATM   15  C13 UNL     1      -0.574   8.660  16.199  1.00  0.00     0.091 C 
HETATM   16  C14 UNL     1      -1.678   9.706  15.973  1.00  0.00     0.005 C 
HETATM   17  C15 UNL     1      -1.082  10.868  15.129  1.00  0.00     0.019 C 
HETATM   18  C16 UNL     1      -2.891   9.002  15.287  1.00  0.00     0.002 C 
HETATM   19  C17 UNL     1      -3.991  10.052  15.367  1.00  0.00     0.009 C 
HETATM   20  C18 UNL     1      -3.752  10.755  16.719  1.00  0.00     0.047 C 
HETATM   21  C19 UNL     1      -2.381  10.251  17.255  1.00  0.00     0.128 C 
ENDROOT
BRANCH  21  22
HETATM   22  O3  UNL     1      -2.649   9.148  18.125  1.00  0.00    -0.381 OA
HETATM   23  H25 UNL     1      -3.126   9.484  18.906  1.00  0.00     0.211 HD
ENDBRANCH  21  22
BRANCH  21  24
HETATM   24  C20 UNL     1      -1.596  11.375  17.981  1.00  0.00     0.185 C 
HETATM   25  O4  UNL     1      -1.804  12.567  17.746  1.00  0.00    -0.292 OA
BRANCH  24  26
HETATM   26  C21 UNL     1      -0.516  10.953  18.970  1.00  0.00     0.260 C 
BRANCH  26  27
HETATM   27  O5  UNL     1       0.776  11.428  18.588  1.00  0.00    -0.314 OA
BRANCH  27  28
HETATM   28  C22 UNL     1       1.834  10.802  19.176  1.00  0.00     0.259 C 
HETATM   29  O6  UNL     1       2.887  10.528  18.621  1.00  0.00    -0.265 OA
BRANCH  28  30
HETATM   30  C23 UNL     1       1.506  10.511  20.616  1.00  0.00     0.120 C 
BRANCH  30  31
HETATM   31  C24 UNL     1       2.720   9.967  21.359  1.00  0.00     0.112 C 
BRANCH  31  32
HETATM   32  C25 UNL     1       3.205  10.941  22.409  1.00  0.00     0.218 C 
HETATM   33  O7  UNL     1       2.998  10.799  23.608  1.00  0.00    -0.274 OA
HETATM   34  N1  UNL     1       3.891  12.010  21.873  1.00  0.00    -0.361 N 
HETATM   35  H32 UNL     1       4.244  11.920  20.928  1.00  0.00     0.162 HD
BRANCH  34  36
HETATM   36  C26 UNL     1       4.521  12.988  22.739  1.00  0.00     0.127 C 
BRANCH  36  37
HETATM   37  C27 UNL     1       6.039  13.063  22.522  1.00  0.00     0.003 C 
HETATM   38  C28 UNL     1       6.608  14.427  22.961  1.00  0.00     0.007 C 
HETATM   39  C29 UNL     1       8.040  14.363  23.505  1.00  0.00     0.015 C 
HETATM   40  C30 UNL     1       8.894  13.281  22.846  1.00  0.00     0.084 C 
HETATM   41  C32 UNL     1       8.247  11.888  22.946  1.00  0.00     0.015 C 
HETATM   42  C33 UNL     1       6.746  11.915  23.247  1.00  0.00     0.007 C 
BRANCH  40  43
HETATM   43  C31 UNL     1       9.201  13.665  21.413  1.00  0.00     0.143 C 
HETATM   44  O8  UNL     1      10.215  14.194  20.990  1.00  0.00    -0.650 OA
BRANCH  43  45
HETATM   45  O9  UNL     1       8.205  13.330  20.569  1.00  0.00    -0.776 OA
HETATM   46  H41 UNL     1       8.529  13.614  19.689  1.00  0.00     0.167 HD
ENDBRANCH  43  45
ENDBRANCH  40  43
ENDBRANCH  36  37
ENDBRANCH  34  36
ENDBRANCH  31  32
ENDBRANCH  30  31
ENDBRANCH  28  30
ENDBRANCH  27  28
ENDBRANCH  26  27
ENDBRANCH  24  26
ENDBRANCH  21  24
TORSDOF 12
ENDMDL
