MODEL 1
REMARK minimizedAffinity -8.62190914
REMARK  5 active torsions:
REMARK  status: ('A' for Active; 'I' for Inactive)
REMARK    1  A    between atoms: N2_12  and  C9_13 
REMARK    2  A    between atoms: C9_13  and  C10_14 
REMARK    3  A    between atoms: C10_14  and  C11_15 
REMARK    4  A    between atoms: C11_15  and  N3_16 
REMARK    5  A    between atoms: N4_19  and  C14_20 
ROOT
HETATM    1  C9  UNL     1      -2.968   6.637  13.391  1.00  0.00     0.139 C 
ENDROOT
BRANCH   1   2
HETATM    2  N2  UNL     1      -4.110   5.729  13.393  1.00  0.00    -0.266 N 
HETATM    3  C1  UNL     1      -5.182   6.035  14.218  1.00  0.00     0.329 A 
HETATM    4  O1  UNL     1      -5.223   7.012  14.964  1.00  0.00    -0.246 OA
HETATM    5  N1  UNL     1      -6.248   5.182  14.183  1.00  0.00    -0.307 N 
HETATM    6  C2  UNL     1      -6.318   4.060  13.363  1.00  0.00     0.052 A 
HETATM    7  H1  UNL     1      -7.014   5.422  14.799  1.00  0.00     0.170 HD
HETATM    8  C3  UNL     1      -7.447   3.241  13.396  1.00  0.00     0.030 A 
HETATM    9  C7  UNL     1      -5.262   3.764  12.509  1.00  0.00     0.059 A 
HETATM   10  C4  UNL     1      -7.510   2.119  12.566  1.00  0.00     0.002 A 
HETATM   11  C5  UNL     1      -6.451   1.820  11.707  1.00  0.00     0.001 A 
HETATM   12  C6  UNL     1      -5.325   2.642  11.676  1.00  0.00     0.019 A 
HETATM   13  C8  UNL     1      -4.089   4.658  12.501  1.00  0.00     0.264 A 
HETATM   14  O2  UNL     1      -3.165   4.430  11.722  1.00  0.00    -0.267 OA
ENDBRANCH   1   2
BRANCH   1  15
HETATM   15  C10 UNL     1      -1.813   6.092  14.237  1.00  0.00     0.050 C 
BRANCH  15  16
HETATM   16  C11 UNL     1      -0.988   7.239  14.832  1.00  0.00     0.274 C 
BRANCH  16  17
HETATM   17  N3  UNL     1       0.294   7.439  14.141  1.00  0.00     0.091 N 
HETATM   18  C12 UNL     1       0.244   8.576  13.191  1.00  0.00     0.292 C 
HETATM   19  C13 UNL     1       1.238   8.476  12.010  1.00  0.00     0.153 C 
HETATM   20  N4  UNL     1       0.975   7.266  11.215  1.00  0.00    -0.378 N 
HETATM   21  C20 UNL     1       0.424   6.114  11.947  1.00  0.00     0.153 C 
HETATM   22  C21 UNL     1       0.744   6.205  13.458  1.00  0.00     0.292 C 
BRANCH  20  23
HETATM   23  C14 UNL     1       1.359   7.161   9.888  1.00  0.00     0.030 A 
HETATM   24  C15 UNL     1       2.303   6.209   9.467  1.00  0.00     0.029 A 
HETATM   25  C16 UNL     1       2.696   6.090   8.128  1.00  0.00     0.002 A 
HETATM   26  C17 UNL     1       2.148   6.929   7.165  1.00  0.00     0.000 A 
HETATM   27  C18 UNL     1       1.209   7.879   7.546  1.00  0.00     0.002 A 
HETATM   28  C19 UNL     1       0.823   7.989   8.888  1.00  0.00     0.029 A 
ENDBRANCH  20  23
ENDBRANCH  16  17
ENDBRANCH  15  16
ENDBRANCH   1  15
TORSDOF 5
ENDMDL
