MODEL 1
REMARK minimizedAffinity -7.32915211
REMARK CNNscore 0.721634626
REMARK CNNaffinity 6.43041468
REMARK  9 active torsions:
REMARK  status: ('A' for Active; 'I' for Inactive)
REMARK    1  A    between atoms: C2_2  and  C30_35 
REMARK    2  A    between atoms: C3_3  and  C4_4 
REMARK    3  A    between atoms: C4_4  and  O1_5 
REMARK    4  A    between atoms: C4_4  and  C5_6 
REMARK    5  A    between atoms: C5_6  and  C6_7 
REMARK    6  A    between atoms: C6_7  and  C8_9 
REMARK    7  A    between atoms: C10_11  and  O2_12 
REMARK    8  A    between atoms: C29_33  and  O5_34 
REMARK    9  A    between atoms: C30_35  and  O7_37 
ROOT
HETATM    1  C8  UNL     1       0.583  12.688  19.563  1.00  0.00     0.001 C 
HETATM    2  C9  UNL     1      -0.700  13.544  19.346  1.00  0.00     0.038 C 
HETATM    3  C10 UNL     1      -1.359  13.024  18.055  1.00  0.00     0.132 C 
HETATM    4  C11 UNL     1      -0.789  11.592  17.889  1.00  0.00     0.017 C 
HETATM    5  C12 UNL     1      -1.535  10.636  18.882  1.00  0.00     0.023 C 
HETATM    6  C13 UNL     1      -0.871  10.905  16.527  1.00  0.00    -0.029 C 
HETATM    7  C14 UNL     1      -0.015   9.895  16.210  1.00  0.00     0.002 C 
HETATM    8  C15 UNL     1       1.135   9.597  17.169  1.00  0.00     0.157 C 
HETATM    9  O3  UNL     1       1.882   8.636  16.987  1.00  0.00    -0.293 OA
HETATM   10  C16 UNL     1       1.404  10.500  18.372  1.00  0.00     0.094 C 
HETATM   11  C17 UNL     1       0.717  11.860  18.243  1.00  0.00    -0.019 C 
HETATM   12  C18 UNL     1       1.471  12.676  17.154  1.00  0.00     0.017 C 
HETATM   13  C19 UNL     1      -0.122   9.083  14.886  1.00  0.00    -0.008 C 
HETATM   14  C20 UNL     1       1.015   9.617  13.987  1.00  0.00     0.021 C 
HETATM   15  C21 UNL     1       0.041   7.550  15.090  1.00  0.00     0.022 C 
HETATM   16  C22 UNL     1      -0.178   6.732  13.824  1.00  0.00     0.080 C 
HETATM   17  C23 UNL     1      -1.526   6.991  13.205  1.00  0.00     0.135 C 
HETATM   18  O4  UNL     1      -2.192   6.046  12.777  1.00  0.00    -0.297 OA
HETATM   19  C24 UNL     1      -1.958   8.452  13.012  1.00  0.00     0.018 C 
HETATM   20  C25 UNL     1      -1.358   8.965  11.696  1.00  0.00     0.023 C 
HETATM   21  C26 UNL     1      -3.500   8.457  12.842  1.00  0.00     0.023 C 
HETATM   22  C27 UNL     1      -1.576   9.275  14.290  1.00  0.00     0.016 C 
HETATM   23  C28 UNL     1      -1.906  10.773  14.189  1.00  0.00     0.043 C 
HETATM   24  C29 UNL     1      -1.943  11.402  15.582  1.00  0.00     0.149 C 
ENDROOT
BRANCH   1  25
HETATM   25  C6  UNL     1       1.772  13.481  20.187  1.00  0.00    -0.011 C 
HETATM   26  C7  UNL     1       2.567  14.376  19.228  1.00  0.00     0.010 C 
BRANCH  25  27
HETATM   27  C5  UNL     1       2.699  12.545  21.004  1.00  0.00     0.040 C 
BRANCH  27  28
HETATM   28  C4  UNL     1       4.034  12.209  20.320  1.00  0.00     0.142 C 
BRANCH  28  29
HETATM   29  C3  UNL     1       5.202  12.605  21.184  1.00  0.00     0.018 C 
HETATM   30  C2  UNL     1       5.650  12.037  22.324  1.00  0.00     0.010 C 
HETATM   31  C1  UNL     1       5.008  10.879  23.036  1.00  0.00     0.055 C 
BRANCH  30  32
HETATM   32  C30 UNL     1       6.860  12.566  23.007  1.00  0.00     0.171 C 
HETATM   33  O6  UNL     1       7.825  11.905  23.348  1.00  0.00    -0.646 OA
BRANCH  32  34
HETATM   34  O7  UNL     1       6.816  13.889  23.246  1.00  0.00    -0.773 OA
HETATM   35  H44 UNL     1       7.664  14.065  23.703  1.00  0.00     0.167 HD
ENDBRANCH  32  34
ENDBRANCH  30  32
ENDBRANCH  28  29
BRANCH  28  36
HETATM   36  O1  UNL     1       4.106  10.827  20.005  1.00  0.00    -0.392 OA
HETATM   37  H6  UNL     1       4.990  10.667  19.632  1.00  0.00     0.210 HD
ENDBRANCH  28  36
ENDBRANCH  27  28
ENDBRANCH  25  27
ENDBRANCH   1  25
BRANCH   3  38
HETATM   38  O2  UNL     1      -2.778  13.043  18.136  1.00  0.00    -0.394 OA
HETATM   39  H17 UNL     1      -3.041  13.932  18.441  1.00  0.00     0.210 HD
ENDBRANCH   3  38
BRANCH  24  40
HETATM   40  O5  UNL     1      -3.219  11.127  16.148  1.00  0.00    -0.391 OA
HETATM   41  H43 UNL     1      -3.330  11.747  16.900  1.00  0.00     0.210 HD
ENDBRANCH  24  40
TORSDOF 9
ENDMDL
