MODEL 1
REMARK minimizedAffinity -8.04128551
REMARK CNNscore 0.813982427
REMARK CNNaffinity 6.7645402
REMARK  7 active torsions:
REMARK  status: ('A' for Active; 'I' for Inactive)
REMARK    1  A    between atoms: C2_2  and  C30_32 
REMARK    2  A    between atoms: C3_3  and  C4_4 
REMARK    3  A    between atoms: C4_4  and  O1_5 
REMARK    4  A    between atoms: C4_4  and  C5_6 
REMARK    5  A    between atoms: C5_6  and  C6_7 
REMARK    6  A    between atoms: C6_7  and  C8_9 
REMARK    7  A    between atoms: C30_32  and  O4_34 
ROOT
HETATM    1  C8  UNL     1       5.851  55.590  -8.029  1.00  0.00    -0.002 C 
HETATM    2  C9  UNL     1       6.628  54.530  -8.842  1.00  0.00     0.006 C 
HETATM    3  C10 UNL     1       5.586  53.764  -9.686  1.00  0.00     0.011 C 
HETATM    4  C11 UNL     1       4.293  54.604  -9.605  1.00  0.00    -0.032 C 
HETATM    5  C12 UNL     1       4.404  55.714 -10.696  1.00  0.00     0.016 C 
HETATM    6  C13 UNL     1       2.977  53.803  -9.805  1.00  0.00     0.004 C 
HETATM    7  C14 UNL     1       2.711  53.377 -11.257  1.00  0.00     0.007 C 
HETATM    8  C15 UNL     1       1.457  52.508 -11.327  1.00  0.00     0.007 C 
HETATM    9  C16 UNL     1       0.204  53.344 -11.032  1.00  0.00     0.010 C 
HETATM   10  C17 UNL     1      -1.132  52.530 -10.995  1.00  0.00     0.018 C 
HETATM   11  C18 UNL     1      -1.604  52.218 -12.428  1.00  0.00     0.023 C 
HETATM   12  C19 UNL     1      -1.027  51.203 -10.225  1.00  0.00     0.023 C 
HETATM   13  C20 UNL     1      -2.229  53.386 -10.341  1.00  0.00     0.135 C 
HETATM   14  O2  UNL     1      -3.264  52.894  -9.889  1.00  0.00    -0.297 OA
HETATM   15  C21 UNL     1      -2.048  54.883 -10.372  1.00  0.00     0.080 C 
HETATM   16  C22 UNL     1      -0.728  55.310  -9.741  1.00  0.00     0.018 C 
HETATM   17  C23 UNL     1       0.342  54.227  -9.792  1.00  0.00    -0.026 A 
HETATM   18  C24 UNL     1       0.758  53.620  -8.476  1.00  0.00     0.021 A 
HETATM   19  C25 UNL     1       1.746  54.528  -9.197  1.00  0.00    -0.027 A 
HETATM   20  C26 UNL     1       1.965  55.919  -8.584  1.00  0.00     0.011 C 
HETATM   21  C27 UNL     1       3.329  56.224  -7.939  1.00  0.00     0.011 C 
HETATM   22  C28 UNL     1       4.369  55.117  -8.118  1.00  0.00    -0.032 C 
HETATM   23  C29 UNL     1       4.076  54.015  -7.067  1.00  0.00     0.016 C 
ENDROOT
BRANCH   1  24
HETATM   24  C6  UNL     1       6.483  56.104  -6.706  1.00  0.00    -0.011 C 
HETATM   25  C7  UNL     1       6.051  57.566  -6.470  1.00  0.00     0.010 C 
BRANCH  24  26
HETATM   26  C5  UNL     1       7.989  55.938  -6.386  1.00  0.00     0.040 C 
BRANCH  26  27
HETATM   27  C4  UNL     1       8.443  55.675  -4.946  1.00  0.00     0.142 C 
BRANCH  27  28
HETATM   28  C3  UNL     1       9.924  55.915  -4.819  1.00  0.00     0.018 C 
HETATM   29  C2  UNL     1      10.582  57.092  -4.780  1.00  0.00     0.010 C 
HETATM   30  C1  UNL     1       9.965  58.458  -4.863  1.00  0.00     0.055 C 
BRANCH  29  31
HETATM   31  C30 UNL     1      12.066  57.124  -4.644  1.00  0.00     0.171 C 
HETATM   32  O3  UNL     1      12.696  57.975  -4.041  1.00  0.00    -0.646 OA
BRANCH  31  33
HETATM   33  O4  UNL     1      12.693  56.103  -5.249  1.00  0.00    -0.773 OA
HETATM   34  H46 UNL     1      13.640  56.267  -5.059  1.00  0.00     0.167 HD
ENDBRANCH  31  33
ENDBRANCH  29  31
ENDBRANCH  27  28
BRANCH  27  35
HETATM   35  O1  UNL     1       8.221  54.313  -4.600  1.00  0.00    -0.392 OA
HETATM   36  H6  UNL     1       8.666  54.151  -3.752  1.00  0.00     0.210 HD
ENDBRANCH  27  35
ENDBRANCH  26  27
ENDBRANCH  24  26
ENDBRANCH   1  24
TORSDOF 7
ENDMDL
