MODEL 1
REMARK minimizedAffinity -7.05025578
REMARK CNNscore 0.480207264
REMARK CNNaffinity 6.3686471
REMARK  10 active torsions:
REMARK  status: ('A' for Active; 'I' for Inactive)
REMARK    1  A    between atoms: C4_4  and  C5_5 
REMARK    2  A    between atoms: C5_5  and  O2_7 
REMARK    3  A    between atoms: O2_7  and  C6_8 
REMARK    4  A    between atoms: C6_8  and  C7_9 
REMARK    5  A    between atoms: C7_9  and  N1_10 
REMARK    6  A    between atoms: C20_24  and  O4_25 
REMARK    7  A    between atoms: O4_25  and  C21_26 
REMARK    8  A    between atoms: C21_26  and  C22_28 
REMARK    9  A    between atoms: C22_28  and  C23_29 
REMARK   10  A    between atoms: C23_29  and  O6_32 
ROOT
HETATM    1  C1  UNL     1      -7.544   5.088  15.649  1.00  0.00     0.015 C 
HETATM    2  C2  UNL     1      -7.629   5.957  14.384  1.00  0.00     0.022 C 
HETATM    3  C3  UNL     1      -8.520   7.171  14.642  1.00  0.00    -0.070 C 
HETATM    4  C4  UNL     1      -9.860   7.010  14.668  1.00  0.00     0.085 C 
HETATM    5  C10 UNL     1      -7.806   8.497  14.794  1.00  0.00     0.035 C 
HETATM    6  C11 UNL     1      -6.428   8.393  15.465  1.00  0.00     0.010 C 
HETATM    7  C12 UNL     1      -5.506   7.272  14.917  1.00  0.00     0.006 C 
HETATM    8  C13 UNL     1      -6.253   6.426  13.856  1.00  0.00     0.068 C 
HETATM    9  C14 UNL     1      -5.395   5.281  13.335  1.00  0.00     0.132 C 
HETATM   10  O3  UNL     1      -5.850   4.158  13.120  1.00  0.00    -0.298 OA
HETATM   11  C15 UNL     1      -3.968   5.620  12.951  1.00  0.00     0.085 C 
HETATM   12  C16 UNL     1      -3.291   6.399  14.090  1.00  0.00     0.011 C 
HETATM   13  C17 UNL     1      -1.724   6.530  13.987  1.00  0.00    -0.016 C 
HETATM   14  C18 UNL     1      -1.268   7.218  12.684  1.00  0.00     0.018 C 
HETATM   15  C19 UNL     1      -1.105   5.104  13.950  1.00  0.00     0.018 C 
HETATM   16  C20 UNL     1      -1.155   7.230  15.278  1.00  0.00     0.140 C 
HETATM   17  C26 UNL     1      -2.242   7.721  16.244  1.00  0.00     0.034 C 
HETATM   18  C27 UNL     1      -3.322   8.526  15.532  1.00  0.00     0.012 C 
HETATM   19  C28 UNL     1      -4.076   7.733  14.422  1.00  0.00    -0.035 C 
HETATM   20  C29 UNL     1      -4.245   8.683  13.209  1.00  0.00     0.016 C 
ENDROOT
BRANCH   4  21
HETATM   21  C5  UNL     1     -10.883   8.074  14.825  1.00  0.00     0.283 C 
HETATM   22  O1  UNL     1     -11.626   8.496  13.960  1.00  0.00    -0.260 OA
BRANCH  21  23
HETATM   23  O2  UNL     1     -10.846   8.475  16.122  1.00  0.00    -0.316 OA
BRANCH  23  24
HETATM   24  C6  UNL     1     -11.725   9.562  16.470  1.00  0.00     0.209 C 
BRANCH  24  25
HETATM   25  C7  UNL     1     -11.581   9.907  17.961  1.00  0.00     0.298 C 
BRANCH  25  26
HETATM   26  N1  UNL     1     -10.699  11.058  18.232  1.00  0.00     0.082 N 
HETATM   27  C8  UNL     1     -11.115  11.728  19.469  1.00  0.00     0.309 C 
HETATM   28  C9  UNL     1     -10.699  12.022  17.128  1.00  0.00     0.309 C 
ENDBRANCH  25  26
ENDBRANCH  24  25
ENDBRANCH  23  24
ENDBRANCH  21  23
ENDBRANCH   4  21
BRANCH  16  29
HETATM   29  O4  UNL     1      -0.338   8.379  14.954  1.00  0.00    -0.315 OA
BRANCH  29  30
HETATM   30  C21 UNL     1       0.908   8.423  15.514  1.00  0.00     0.262 C 
HETATM   31  O5  UNL     1       1.290   7.694  16.416  1.00  0.00    -0.265 OA
BRANCH  30  32
HETATM   32  C22 UNL     1       1.746   9.453  14.787  1.00  0.00     0.148 C 
BRANCH  32  33
HETATM   33  C23 UNL     1       2.214   9.037  13.382  1.00  0.00     0.059 C 
HETATM   34  C24 UNL     1       3.514   9.778  13.045  1.00  0.00     0.045 C 
HETATM   35  C25 UNL     1       2.449   7.529  13.262  1.00  0.00     0.045 C 
BRANCH  33  36
HETATM   36  O6  UNL     1       1.261   9.415  12.389  1.00  0.00    -0.390 OA
HETATM   37  H40 UNL     1       1.065  10.363  12.479  1.00  0.00     0.210 HD
ENDBRANCH  33  36
ENDBRANCH  32  33
ENDBRANCH  30  32
ENDBRANCH  29  30
ENDBRANCH  16  29
TORSDOF 10
ENDMDL
