MODEL 1
REMARK minimizedAffinity -8.03723907
REMARK CNNscore 0.58066386
REMARK CNNaffinity 7.20319414
REMARK  10 active torsions:
REMARK  status: ('A' for Active; 'I' for Inactive)
REMARK    1  A    between atoms: C19_21  and  O3_22 
REMARK    2  A    between atoms: C19_21  and  C20_23 
REMARK    3  A    between atoms: C20_23  and  C21_25 
REMARK    4  A    between atoms: C21_25  and  O5_26 
REMARK    5  A    between atoms: O5_26  and  C22_27 
REMARK    6  A    between atoms: C22_27  and  C23_29 
REMARK    7  A    between atoms: C23_29  and  C24_30 
REMARK    8  A    between atoms: C24_30  and  C25_31 
REMARK       I    between atoms: C25_31  and  N1_33 
REMARK    9  A    between atoms: N1_33  and  C26_34 
REMARK   10  A    between atoms: C26_34  and  C27_35 
ROOT
HETATM    1  C1  UNL     1       3.687  55.117  -6.938  1.00  0.00     0.021 C 
HETATM    2  C2  UNL     1       3.382  54.533  -8.347  1.00  0.00    -0.009 C 
HETATM    3  C3  UNL     1       3.781  53.031  -8.349  1.00  0.00     0.022 C 
HETATM    4  C4  UNL     1       5.280  52.787  -8.169  1.00  0.00     0.084 C 
HETATM    5  C5  UNL     1       6.114  53.630  -9.096  1.00  0.00     0.149 C 
HETATM    6  O1  UNL     1       7.282  53.351  -9.360  1.00  0.00    -0.293 OA
HETATM    7  C6  UNL     1       5.517  54.853  -9.676  1.00  0.00     0.053 C 
HETATM    8  C7  UNL     1       4.282  55.267  -9.342  1.00  0.00    -0.067 C 
HETATM    9  C8  UNL     1       3.683  56.465 -10.022  1.00  0.00     0.035 C 
HETATM   10  C9  UNL     1       2.549  55.956 -10.898  1.00  0.00     0.010 C 
HETATM   11  C10 UNL     1       1.437  55.271 -10.082  1.00  0.00     0.003 C 
HETATM   12  C11 UNL     1       1.852  54.812  -8.650  1.00  0.00     0.072 C 
HETATM   13  C12 UNL     1       0.854  53.790  -8.109  1.00  0.00     0.133 C 
HETATM   14  O2  UNL     1       1.097  53.052  -7.156  1.00  0.00    -0.297 OA
HETATM   15  C13 UNL     1      -0.544  53.850  -8.679  1.00  0.00     0.091 C 
HETATM   16  C14 UNL     1      -0.621  53.680 -10.221  1.00  0.00     0.005 C 
HETATM   17  C15 UNL     1      -1.879  54.468 -10.654  1.00  0.00     0.019 C 
HETATM   18  C16 UNL     1       0.664  54.229 -10.922  1.00  0.00     0.002 C 
HETATM   19  C17 UNL     1       1.494  52.994 -11.323  1.00  0.00     0.009 C 
HETATM   20  C18 UNL     1       0.804  51.785 -10.706  1.00  0.00     0.047 C 
HETATM   21  C19 UNL     1      -0.674  52.179 -10.677  1.00  0.00     0.128 C 
ENDROOT
BRANCH  21  22
HETATM   22  O3  UNL     1      -1.360  51.369  -9.733  1.00  0.00    -0.381 OA
HETATM   23  H25 UNL     1      -2.244  51.747  -9.574  1.00  0.00     0.211 HD
ENDBRANCH  21  22
BRANCH  21  24
HETATM   24  C20 UNL     1      -1.248  51.907 -12.101  1.00  0.00     0.185 C 
HETATM   25  O4  UNL     1      -2.092  52.641 -12.620  1.00  0.00    -0.292 OA
BRANCH  24  26
HETATM   26  C21 UNL     1      -0.663  50.707 -12.845  1.00  0.00     0.260 C 
BRANCH  26  27
HETATM   27  O5  UNL     1       0.135  51.153 -13.944  1.00  0.00    -0.314 OA
BRANCH  27  28
HETATM   28  C22 UNL     1       0.142  50.322 -15.020  1.00  0.00     0.259 C 
HETATM   29  O6  UNL     1       0.718  49.245 -15.070  1.00  0.00    -0.265 OA
BRANCH  28  30
HETATM   30  C23 UNL     1      -0.658  50.933 -16.141  1.00  0.00     0.120 C 
BRANCH  30  31
HETATM   31  C24 UNL     1       0.041  50.739 -17.481  1.00  0.00     0.112 C 
BRANCH  31  32
HETATM   32  C25 UNL     1       0.794  51.982 -17.898  1.00  0.00     0.218 C 
HETATM   33  O7  UNL     1       1.530  52.610 -17.145  1.00  0.00    -0.274 OA
HETATM   34  N1  UNL     1       0.570  52.331 -19.210  1.00  0.00    -0.357 N 
HETATM   35  H32 UNL     1      -0.156  51.849 -19.725  1.00  0.00     0.162 HD
BRANCH  34  36
HETATM   36  C26 UNL     1       1.104  53.549 -19.778  1.00  0.00     0.162 C 
BRANCH  36  37
HETATM   37  C27 UNL     1       0.974  53.554 -21.272  1.00  0.00    -0.025 A 
HETATM   38  C28 UNL     1       0.309  52.528 -21.950  1.00  0.00     0.011 A 
HETATM   39  C29 UNL     1       0.223  52.557 -23.338  1.00  0.00     0.018 A 
HETATM   40  C30 UNL     1       0.808  53.617 -24.008  1.00  0.00     0.087 A 
HETATM   41  N2  UNL     1       1.463  54.625 -23.392  1.00  0.00    -0.375 N 
HETATM   42  C31 UNL     1       1.532  54.569 -22.042  1.00  0.00     0.096 A 
ATOM     43  H2  UNL     1       1.884  55.390 -23.918  1.00  0.00     0.164 HD
ENDBRANCH  36  37
ENDBRANCH  34  36
ENDBRANCH  31  32
ENDBRANCH  30  31
ENDBRANCH  28  30
ENDBRANCH  27  28
ENDBRANCH  26  27
ENDBRANCH  24  26
ENDBRANCH  21  24
TORSDOF 10
ENDMDL
