MODEL 1
REMARK minimizedAffinity -9.97903442
REMARK  7 active torsions:
REMARK  status: ('A' for Active; 'I' for Inactive)
REMARK    1  A    between atoms: C4_4  and  C5_5 
REMARK    2  A    between atoms: C5_5  and  O1_6 
REMARK    3  A    between atoms: C5_5  and  C6_7 
REMARK    4  A    between atoms: C6_7  and  C7_8 
REMARK    5  A    between atoms: C7_8  and  C8_10 
REMARK    6  A    between atoms: C8_10  and  C10_12 
REMARK    7  A    between atoms: C18_20  and  O3_21 
ROOT
HETATM    1  C10 UNL     1      -0.881  50.310 -19.614  1.00  0.00     0.008 C 
HETATM    2  C11 UNL     1       0.364  50.792 -20.388  1.00  0.00     0.007 C 
HETATM    3  C12 UNL     1      -0.009  51.549 -21.664  1.00  0.00     0.006 C 
HETATM    4  C13 UNL     1      -0.943  50.750 -22.600  1.00  0.00     0.003 C 
HETATM    5  C14 UNL     1      -1.230  51.453 -24.005  1.00  0.00    -0.035 C 
HETATM    6  C15 UNL     1      -1.963  52.804 -23.830  1.00  0.00     0.016 C 
HETATM    7  C16 UNL     1       0.129  51.749 -24.712  1.00  0.00     0.012 C 
HETATM    8  C17 UNL     1       0.003  52.136 -26.184  1.00  0.00     0.033 C 
HETATM    9  C18 UNL     1      -0.773  51.101 -26.990  1.00  0.00     0.126 C 
HETATM   10  C19 UNL     1      -2.181  50.775 -26.412  1.00  0.00    -0.017 C 
HETATM   11  C20 UNL     1      -2.718  49.541 -27.192  1.00  0.00     0.018 C 
HETATM   12  C21 UNL     1      -3.189  51.912 -26.677  1.00  0.00     0.018 C 
HETATM   13  C22 UNL     1      -2.017  50.412 -24.888  1.00  0.00     0.004 C 
HETATM   14  C23 UNL     1      -3.312  49.953 -24.193  1.00  0.00     0.007 C 
HETATM   15  C24 UNL     1      -3.026  49.302 -22.834  1.00  0.00     0.011 C 
HETATM   16  C25 UNL     1      -2.213  50.175 -21.836  1.00  0.00    -0.029 C 
HETATM   17  C26 UNL     1      -3.153  51.328 -21.358  1.00  0.00     0.016 C 
HETATM   18  C27 UNL     1      -1.711  49.315 -20.529  1.00  0.00     0.002 C 
HETATM   19  C28 UNL     1      -0.904  48.066 -20.956  1.00  0.00     0.190 C 
HETATM   20  O4  UNL     1      -1.823  46.983 -21.101  1.00  0.00    -0.321 OA
HETATM   21  C29 UNL     1      -2.966  47.263 -20.426  1.00  0.00     0.259 C 
HETATM   22  O5  UNL     1      -3.907  46.495 -20.323  1.00  0.00    -0.265 OA
HETATM   23  C30 UNL     1      -2.872  48.617 -19.794  1.00  0.00     0.124 C 
ENDROOT
BRANCH   1  24
HETATM   24  C8  UNL     1      -0.491  49.957 -18.130  1.00  0.00     0.056 C 
HETATM   25  C9  UNL     1      -1.503  49.132 -17.347  1.00  0.00     0.018 C 
BRANCH  24  26
HETATM   26  C7  UNL     1       0.002  51.192 -17.344  1.00  0.00     0.133 C 
HETATM   27  O2  UNL     1       0.479  52.172 -17.922  1.00  0.00    -0.297 OA
BRANCH  26  28
HETATM   28  C6  UNL     1      -0.056  51.185 -15.825  1.00  0.00     0.114 C 
BRANCH  28  29
HETATM   29  C5  UNL     1       1.034  52.013 -15.147  1.00  0.00     0.148 C 
BRANCH  29  30
HETATM   30  C4  UNL     1       2.145  51.203 -14.540  1.00  0.00     0.007 C 
HETATM   31  C2  UNL     1       3.466  51.260 -14.804  1.00  0.00    -0.089 C 
HETATM   32  C1  UNL     1       4.126  52.181 -15.793  1.00  0.00     0.042 C 
HETATM   33  C3  UNL     1       4.426  50.342 -14.091  1.00  0.00     0.042 C 
ENDBRANCH  29  30
BRANCH  29  34
HETATM   34  O1  UNL     1       0.466  52.813 -14.115  1.00  0.00    -0.391 OA
HETATM   35  H9  UNL     1       1.204  53.306 -13.711  1.00  0.00     0.210 HD
ENDBRANCH  29  34
ENDBRANCH  28  29
ENDBRANCH  26  28
ENDBRANCH  24  26
ENDBRANCH   1  24
BRANCH   9  36
HETATM   36  O3  UNL     1      -0.845  51.538 -28.348  1.00  0.00    -0.395 OA
HETATM   37  H30 UNL     1      -1.240  52.424 -28.362  1.00  0.00     0.210 HD
ENDBRANCH   9  36
TORSDOF 7
ENDMDL
