MODEL 1
REMARK minimizedAffinity -7.31032944
REMARK CNNscore 0.443322629
REMARK CNNaffinity 6.22869253
REMARK  13 active torsions:
REMARK  status: ('A' for Active; 'I' for Inactive)
REMARK    1  A    between atoms: C3_3  and  O1_4 
REMARK    2  A    between atoms: N1_14  and  O2_16 
REMARK    3  A    between atoms: O2_16  and  C13_17 
REMARK    4  A    between atoms: C13_17  and  C14_18 
REMARK       I    between atoms: C14_18  and  N2_20 
REMARK    5  A    between atoms: N2_20  and  C15_21 
REMARK    6  A    between atoms: C15_21  and  C16_22 
REMARK    7  A    between atoms: C15_21  and  C21_33 
REMARK       I    between atoms: C16_22  and  N3_24 
REMARK    8  A    between atoms: N3_24  and  C17_25 
REMARK    9  A    between atoms: C17_25  and  C18_26 
REMARK   10  A    between atoms: C17_25  and  C20_30 
REMARK   11  A    between atoms: C18_26  and  C19_27 
REMARK   12  A    between atoms: C19_27  and  O6_29 
REMARK   13  A    between atoms: C20_30  and  O8_32 
ROOT
HETATM    1  C1  UNL     1      -0.533  51.941 -20.470  1.00  0.00     0.015 C 
HETATM    2  C2  UNL     1      -1.609  51.408 -20.417  1.00  0.00    -0.078 C 
HETATM    3  C3  UNL     1      -2.938  50.776 -20.337  1.00  0.00     0.128 C 
HETATM    4  C4  UNL     1      -3.905  51.385 -21.358  1.00  0.00     0.052 C 
HETATM    5  C5  UNL     1      -5.008  50.341 -21.457  1.00  0.00     0.010 C 
HETATM    6  C6  UNL     1      -4.225  49.031 -21.555  1.00  0.00     0.002 C 
HETATM    7  C7  UNL     1      -5.021  47.736 -21.298  1.00  0.00    -0.004 C 
HETATM    8  C8  UNL     1      -6.173  47.539 -22.292  1.00  0.00     0.010 C 
HETATM    9  C9  UNL     1      -7.147  46.474 -21.813  1.00  0.00     0.035 C 
HETATM   10  C10 UNL     1      -7.812  47.022 -20.583  1.00  0.00    -0.069 C 
HETATM   11  C11 UNL     1      -9.126  47.312 -20.603  1.00  0.00     0.030 C 
HETATM   12  C12 UNL     1      -9.791  47.990 -19.454  1.00  0.00     0.032 C 
HETATM   13  N1  UNL     1     -11.074  48.127 -19.296  1.00  0.00    -0.271 N 
ATOM     14  H1  UNL     1     -11.506  48.612 -18.509  1.00  0.00     0.194 HD
HETATM   15  C24 UNL     1      -8.911  48.564 -18.359  1.00  0.00     0.060 C 
HETATM   16  C25 UNL     1      -7.434  48.629 -18.737  1.00  0.00     0.020 C 
HETATM   17  C26 UNL     1      -6.902  47.333 -19.398  1.00  0.00    -0.016 C 
HETATM   18  C27 UNL     1      -7.034  46.160 -18.385  1.00  0.00     0.020 C 
HETATM   19  C28 UNL     1      -5.372  47.423 -19.813  1.00  0.00     0.002 C 
HETATM   20  C29 UNL     1      -4.484  48.206 -18.827  1.00  0.00     0.007 C 
HETATM   21  C30 UNL     1      -3.057  48.358 -19.351  1.00  0.00     0.014 C 
HETATM   22  C31 UNL     1      -2.968  49.224 -20.634  1.00  0.00     0.003 C 
HETATM   23  C32 UNL     1      -1.727  48.748 -21.429  1.00  0.00     0.020 C 
ENDROOT
BRANCH   3  24
HETATM   24  O1  UNL     1      -3.466  51.062 -19.040  1.00  0.00    -0.377 OA
HETATM   25  H2  UNL     1      -3.344  52.014 -18.886  1.00  0.00     0.211 HD
ENDBRANCH   3  24
BRANCH  13  26
HETATM   26  O2  UNL     1     -11.792  47.526 -20.342  1.00  0.00    -0.271 OA
BRANCH  26  27
HETATM   27  C13 UNL     1     -13.153  47.919 -20.246  1.00  0.00     0.303 C 
BRANCH  27  28
HETATM   28  C14 UNL     1     -14.057  46.693 -20.141  1.00  0.00     0.244 C 
HETATM   29  O3  UNL     1     -13.643  45.547 -19.983  1.00  0.00    -0.271 OA
HETATM   30  N2  UNL     1     -15.405  46.995 -20.223  1.00  0.00    -0.346 N 
HETATM   31  H16 UNL     1     -15.642  47.854 -20.713  1.00  0.00     0.163 HD
BRANCH  30  32
HETATM   32  C15 UNL     1     -16.414  45.936 -20.319  1.00  0.00     0.180 C 
BRANCH  32  33
HETATM   33  C16 UNL     1     -16.883  45.901 -21.791  1.00  0.00     0.241 C 
HETATM   34  O4  UNL     1     -16.714  46.853 -22.554  1.00  0.00    -0.271 OA
HETATM   35  N3  UNL     1     -17.506  44.738 -22.180  1.00  0.00    -0.344 N 
HETATM   36  H18 UNL     1     -17.830  44.105 -21.453  1.00  0.00     0.163 HD
BRANCH  35  37
HETATM   37  C17 UNL     1     -18.186  44.633 -23.474  1.00  0.00     0.192 C 
BRANCH  37  38
HETATM   38  C18 UNL     1     -19.395  45.566 -23.541  1.00  0.00     0.146 C 
BRANCH  38  39
HETATM   39  C19 UNL     1     -19.503  46.249 -24.874  1.00  0.00     0.141 C 
HETATM   40  O5  UNL     1     -19.922  45.761 -25.910  1.00  0.00    -0.650 OA
BRANCH  39  41
HETATM   41  O6  UNL     1     -19.030  47.509 -24.843  1.00  0.00    -0.776 OA
HETATM   42  H22 UNL     1     -19.122  47.836 -25.763  1.00  0.00     0.167 HD
ENDBRANCH  39  41
ENDBRANCH  38  39
ENDBRANCH  37  38
BRANCH  37  43
HETATM   43  C20 UNL     1     -17.183  44.894 -24.607  1.00  0.00     0.164 C 
HETATM   44  O7  UNL     1     -17.350  45.602 -25.588  1.00  0.00    -0.648 OA
BRANCH  43  45
HETATM   45  O8  UNL     1     -15.993  44.287 -24.417  1.00  0.00    -0.775 OA
HETATM   46  H23 UNL     1     -15.459  44.578 -25.186  1.00  0.00     0.167 HD
ENDBRANCH  43  45
ENDBRANCH  37  43
ENDBRANCH  35  37
ENDBRANCH  32  33
BRANCH  32  47
HETATM   47  C21 UNL     1     -17.548  46.187 -19.301  1.00  0.00     0.009 C 
HETATM   48  C22 UNL     1     -18.305  44.905 -18.945  1.00  0.00     0.012 C 
HETATM   49  C23 UNL     1     -18.533  47.276 -19.736  1.00  0.00     0.012 C 
ENDBRANCH  32  47
ENDBRANCH  30  32
ENDBRANCH  27  28
ENDBRANCH  26  27
ENDBRANCH  13  26
TORSDOF 13
ENDMDL
