MODEL 1
REMARK minimizedAffinity -9.43023872
REMARK  2 active torsions:
REMARK  status: ('A' for Active; 'I' for Inactive)
REMARK    1  A    between atoms: C3_4  and  C4_5 
REMARK       I    between atoms: N3_16  and  C13_17 
REMARK       I    between atoms: C13_17  and  N4_19 
REMARK    2  A    between atoms: N4_19  and  C14_20 
ROOT
HETATM    1  C4  UNL     1      -1.179  51.503 -23.801  1.00  0.00    -0.020 A 
HETATM    2  C5  UNL     1      -2.202  50.609 -24.158  1.00  0.00     0.015 A 
HETATM    3  C6  UNL     1      -2.722  49.697 -23.230  1.00  0.00     0.033 A 
HETATM    4  C7  UNL     1      -2.213  49.653 -21.935  1.00  0.00     0.068 A 
HETATM    5  N2  UNL     1      -2.747  48.711 -21.034  1.00  0.00    -0.325 N 
HETATM    6  C8  UNL     1      -1.998  48.179 -20.005  1.00  0.00     0.222 C 
HETATM    7  O1  UNL     1      -0.841  47.790 -20.119  1.00  0.00    -0.273 OA
HETATM    8  C9  UNL     1      -2.754  48.144 -18.694  1.00  0.00     0.108 C 
HETATM    9  C10 UNL     1      -1.815  48.353 -17.496  1.00  0.00     0.001 C 
HETATM   10  C11 UNL     1      -2.579  48.189 -16.163  1.00  0.00     0.025 C 
HETATM   11  C12 UNL     1      -2.489  49.380 -15.221  1.00  0.00     0.128 C 
HETATM   12  N3  UNL     1      -1.134  49.888 -15.047  1.00  0.00    -0.334 N 
HETATM   13  C13 UNL     1      -0.893  50.684 -13.925  1.00  0.00     0.322 C 
HETATM   14  O2  UNL     1      -1.812  51.039 -13.190  1.00  0.00    -0.247 OA
HETATM   15  N4  UNL     1       0.433  50.998 -13.729  1.00  0.00    -0.309 N 
HETATM   16  C20 UNL     1      -0.193  49.710 -16.156  1.00  0.00     0.132 C 
HETATM   17  C21 UNL     1      -0.885  49.602 -17.532  1.00  0.00     0.010 C 
HETATM   18  C22 UNL     1      -1.482  50.983 -17.917  1.00  0.00     0.033 C 
HETATM   19  C23 UNL     1      -1.819  51.245 -19.389  1.00  0.00     0.176 C 
HETATM   20  O3  UNL     1      -0.799  50.730 -20.250  1.00  0.00    -0.349 OA
HETATM   21  C24 UNL     1      -1.245  50.598 -21.546  1.00  0.00     0.096 A 
HETATM   22  C25 UNL     1      -0.707  51.486 -22.482  1.00  0.00     0.051 A 
HETATM   23  H7  UNL     1      -3.633  48.273 -21.244  1.00  0.00     0.169 HD
HETATM   24  H15 UNL     1       1.088  50.377 -14.176  1.00  0.00     0.170 HD
ENDROOT
BRANCH  15  25
HETATM   25  C14 UNL     1       0.973  51.902 -12.793  1.00  0.00     0.037 A 
HETATM   26  C15 UNL     1       2.300  51.870 -12.360  1.00  0.00     0.029 A 
HETATM   27  C16 UNL     1       2.762  52.787 -11.411  1.00  0.00     0.004 A 
HETATM   28  C17 UNL     1       1.900  53.745 -10.885  1.00  0.00     0.024 A 
HETATM   29  C18 UNL     1       0.575  53.779 -11.308  1.00  0.00     0.036 A 
HETATM   30 CL1  UNL     1      -0.502  54.951 -10.651  1.00  0.00    -0.084 Cl
HETATM   31  C19 UNL     1       0.109  52.865 -12.254  1.00  0.00     0.053 A 
ENDBRANCH  15  25
BRANCH   1  32
HETATM   32  C3  UNL     1      -0.637  52.424 -24.789  1.00  0.00     0.008 A 
HETATM   33  C2  UNL     1      -0.913  52.410 -26.141  1.00  0.00     0.123 A 
HETATM   34  N1  UNL     1      -0.200  53.434 -26.694  1.00  0.00    -0.307 N 
HETATM   35  C1  UNL     1      -0.172  53.822 -28.082  1.00  0.00     0.177 C 
HETATM   36  N5  UNL     1       0.540  54.113 -25.803  1.00  0.00    -0.310 N 
HETATM   37  C26 UNL     1       0.268  53.506 -24.646  1.00  0.00     0.120 A 
ATOM     38  H5  UNL     1       1.162  54.904 -25.971  1.00  0.00     0.186 HD
ENDBRANCH   1  32
TORSDOF 2
ENDMDL
