MODEL 1
REMARK minimizedAffinity -9.83901787
REMARK  9 active torsions:
REMARK  status: ('A' for Active; 'I' for Inactive)
REMARK    1  A    between atoms: C3_3  and  O1_4 
REMARK    2  A    between atoms: N1_14  and  O2_16 
REMARK    3  A    between atoms: O2_16  and  C13_17 
REMARK    4  A    between atoms: C13_17  and  C14_18 
REMARK       I    between atoms: C14_18  and  N2_20 
REMARK    5  A    between atoms: N2_20  and  C15_21 
REMARK    6  A    between atoms: C15_21  and  C16_22 
REMARK    7  A    between atoms: C15_21  and  C17_25 
REMARK    8  A    between atoms: C16_22  and  O5_24 
REMARK    9  A    between atoms: C17_25  and  C19_27 
ROOT
HETATM    1  C1  UNL     1      -2.164  51.011 -27.583  1.00  0.00     0.015 C 
HETATM    2  C2  UNL     1      -1.399  51.327 -26.713  1.00  0.00    -0.078 C 
HETATM    3  C3  UNL     1      -0.444  51.690 -25.655  1.00  0.00     0.128 C 
HETATM    4  C4  UNL     1       0.135  53.114 -25.841  1.00  0.00     0.052 C 
HETATM    5  C5  UNL     1       0.370  53.675 -24.421  1.00  0.00     0.010 C 
HETATM    6  C6  UNL     1       0.085  52.499 -23.490  1.00  0.00     0.002 C 
HETATM    7  C7  UNL     1      -0.230  52.783 -22.015  1.00  0.00    -0.004 C 
HETATM    8  C8  UNL     1       0.902  53.569 -21.342  1.00  0.00     0.010 C 
HETATM    9  C9  UNL     1       0.603  53.817 -19.869  1.00  0.00     0.035 C 
HETATM   10  C10 UNL     1       0.320  52.532 -19.126  1.00  0.00    -0.069 C 
HETATM   11  C11 UNL     1       0.977  52.270 -17.981  1.00  0.00     0.030 C 
HETATM   12  C12 UNL     1       0.658  51.085 -17.144  1.00  0.00     0.032 C 
HETATM   13  N1  UNL     1       1.390  50.869 -16.089  1.00  0.00    -0.271 N 
ATOM     14  H1  UNL     1       2.193  51.438 -15.819  1.00  0.00     0.194 HD
HETATM   15  C21 UNL     1      -0.538  50.247 -17.547  1.00  0.00     0.060 C 
HETATM   16  C22 UNL     1      -0.663  50.200 -19.064  1.00  0.00     0.020 C 
HETATM   17  C23 UNL     1      -0.736  51.601 -19.736  1.00  0.00    -0.016 C 
HETATM   18  C24 UNL     1      -2.131  52.211 -19.472  1.00  0.00     0.020 C 
HETATM   19  C25 UNL     1      -0.451  51.425 -21.277  1.00  0.00     0.002 C 
HETATM   20  C26 UNL     1      -1.488  50.532 -22.011  1.00  0.00     0.007 C 
HETATM   21  C27 UNL     1      -1.198  50.368 -23.514  1.00  0.00     0.014 C 
HETATM   22  C28 UNL     1      -1.041  51.726 -24.219  1.00  0.00     0.003 C 
HETATM   23  C29 UNL     1      -2.403  52.476 -24.206  1.00  0.00     0.020 C 
ENDROOT
BRANCH   3  24
HETATM   24  O1  UNL     1       0.648  50.766 -25.710  1.00  0.00    -0.377 OA
HETATM   25  H2  UNL     1       0.929  50.716 -26.641  1.00  0.00     0.211 HD
ENDBRANCH   3  24
BRANCH  13  26
HETATM   26  O2  UNL     1       0.932  49.755 -15.370  1.00  0.00    -0.271 OA
BRANCH  26  27
HETATM   27  C13 UNL     1       0.775  50.116 -14.007  1.00  0.00     0.303 C 
BRANCH  27  28
HETATM   28  C14 UNL     1      -0.676  49.933 -13.566  1.00  0.00     0.244 C 
HETATM   29  O3  UNL     1      -1.214  48.842 -13.406  1.00  0.00    -0.271 OA
HETATM   30  N2  UNL     1      -1.340  51.131 -13.346  1.00  0.00    -0.344 N 
HETATM   31  H16 UNL     1      -0.973  51.937 -13.838  1.00  0.00     0.163 HD
BRANCH  30  32
HETATM   32  C15 UNL     1      -2.783  51.140 -13.093  1.00  0.00     0.186 C 
BRANCH  32  33
HETATM   33  C16 UNL     1      -3.447  51.941 -14.218  1.00  0.00     0.163 C 
HETATM   34  O4  UNL     1      -3.571  51.584 -15.382  1.00  0.00    -0.648 OA
BRANCH  33  35
HETATM   35  O5  UNL     1      -3.874  53.159 -13.827  1.00  0.00    -0.775 OA
HETATM   36  H18 UNL     1      -4.290  53.538 -14.630  1.00  0.00     0.167 HD
ENDBRANCH  33  35
ENDBRANCH  32  33
BRANCH  32  37
HETATM   37  C17 UNL     1      -3.162  51.731 -11.714  1.00  0.00     0.014 C 
HETATM   38  C18 UNL     1      -4.099  50.832 -10.897  1.00  0.00     0.012 C 
BRANCH  37  39
HETATM   39  C19 UNL     1      -3.699  53.177 -11.809  1.00  0.00     0.002 C 
HETATM   40  C20 UNL     1      -4.008  53.871 -10.490  1.00  0.00     0.005 C 
ENDBRANCH  37  39
ENDBRANCH  32  37
ENDBRANCH  30  32
ENDBRANCH  27  28
ENDBRANCH  26  27
ENDBRANCH  13  26
TORSDOF 9
ENDMDL
