MODEL 1
REMARK minimizedAffinity -8.87174416
REMARK CNNscore 0.555703521
REMARK CNNaffinity 8.23910999
REMARK  7 active torsions:
REMARK  status: ('A' for Active; 'I' for Inactive)
REMARK    1  A    between atoms: C3_3  and  C5_5 
REMARK    2  A    between atoms: C24_26  and  O3_27 
REMARK    3  A    between atoms: C30_35  and  O6_36 
REMARK    4  A    between atoms: C31_38  and  O8_39 
REMARK    5  A    between atoms: C32_40  and  O9_41 
REMARK    6  A    between atoms: O9_41  and  C33_42 
REMARK    7  A    between atoms: C33_42  and  C34_44 
ROOT
HETATM    1  C5  UNL     1      -7.133   7.568  14.878  1.00  0.00     0.160 C 
HETATM    2  O1  UNL     1      -8.047   7.841  13.812  1.00  0.00    -0.342 OA
HETATM    3  C6  UNL     1      -9.393   7.428  14.100  1.00  0.00     0.196 C 
HETATM    4  C7  UNL     1     -10.094   7.323  12.721  1.00  0.00     0.104 C 
HETATM    5  C8  UNL     1     -11.535   7.817  12.760  1.00  0.00     0.139 C 
HETATM    6  C9  UNL     1     -11.612   9.253  13.294  1.00  0.00     0.065 C 
HETATM    7  C10 UNL     1     -10.421   9.593  14.199  1.00  0.00     0.131 C 
HETATM    8  C11 UNL     1     -10.736  10.690  15.235  1.00  0.00     0.059 C 
HETATM    9  C12 UNL     1     -11.278  11.970  14.648  1.00  0.00    -0.022 C 
HETATM   10  C13 UNL     1     -12.149  12.829  15.223  1.00  0.00    -0.087 C 
HETATM   11  C14 UNL     1     -12.559  14.074  14.478  1.00  0.00     0.043 C 
HETATM   12  C15 UNL     1     -12.666  12.699  16.648  1.00  0.00     0.041 C 
HETATM   13  C16 UNL     1     -14.139  12.261  16.870  1.00  0.00     0.008 C 
HETATM   14  C17 UNL     1     -15.140  13.375  16.545  1.00  0.00     0.014 C 
HETATM   15  C18 UNL     1     -14.430  10.920  16.228  1.00  0.00    -0.022 C 
HETATM   16  C19 UNL     1     -15.412  10.623  15.362  1.00  0.00    -0.003 C 
HETATM   17  C20 UNL     1     -15.562   9.329  14.738  1.00  0.00     0.008 C 
HETATM   18  C21 UNL     1     -15.646   8.143  15.364  1.00  0.00    -0.019 C 
HETATM   19  C22 UNL     1     -15.705   7.893  16.849  1.00  0.00     0.206 C 
HETATM   20  O2  UNL     1     -15.951   6.475  17.005  1.00  0.00    -0.375 OA
HETATM   21  C23 UNL     1     -16.556   6.063  15.757  1.00  0.00     0.194 C 
HETATM   22  C24 UNL     1     -16.565   4.530  15.583  1.00  0.00     0.179 C 
HETATM   23  C25 UNL     1     -15.353   3.923  14.908  1.00  0.00    -0.056 C 
HETATM   24  C26 UNL     1     -15.342   2.423  14.793  1.00  0.00     0.046 C 
HETATM   25  C27 UNL     1     -14.354   4.672  14.407  1.00  0.00    -0.004 C 
HETATM   26  C28 UNL     1     -14.341   6.171  14.523  1.00  0.00     0.150 C 
HETATM   27  C29 UNL     1     -13.617   6.817  13.354  1.00  0.00     0.270 C 
HETATM   28  O4  UNL     1     -14.161   7.184  12.317  1.00  0.00    -0.264 OA
HETATM   29  O5  UNL     1     -12.291   6.951  13.632  1.00  0.00    -0.315 OA
HETATM   30  C30 UNL     1     -15.757   6.799  14.687  1.00  0.00     0.128 C 
HETATM   31  O7  UNL     1     -10.036   8.420  14.916  1.00  0.00    -0.347 OA
HETATM   32  C31 UNL     1      -9.418   6.048  14.852  1.00  0.00     0.210 C 
HETATM   33  C32 UNL     1      -8.143   5.241  14.548  1.00  0.00     0.172 C 
HETATM   34  C37 UNL     1      -6.864   6.044  14.911  1.00  0.00     0.047 C 
HETATM   35  C38 UNL     1      -6.309   5.597  16.269  1.00  0.00     0.015 C 
ENDROOT
BRANCH  32  36
HETATM   36  O8  UNL     1      -9.501   6.212  16.283  1.00  0.00    -0.387 OA
HETATM   37  H42 UNL     1      -9.783   5.362  16.661  1.00  0.00     0.210 HD
ENDBRANCH  32  36
BRANCH   1  38
HETATM   38  C3  UNL     1      -5.863   8.391  14.645  1.00  0.00    -0.059 C 
HETATM   39  C2  UNL     1      -5.363   9.226  15.583  1.00  0.00    -0.026 C 
HETATM   40  C1  UNL     1      -4.146  10.088  15.476  1.00  0.00     0.036 C 
HETATM   41  C4  UNL     1      -5.174   8.159  13.325  1.00  0.00     0.046 C 
ENDBRANCH   1  38
BRANCH  33  42
HETATM   42  O9  UNL     1      -8.127   4.900  13.143  1.00  0.00    -0.312 OA
BRANCH  42  43
HETATM   43  C33 UNL     1      -7.633   3.665  12.837  1.00  0.00     0.262 C 
HETATM   44  O10 UNL     1      -8.104   2.617  13.256  1.00  0.00    -0.265 OA
BRANCH  43  45
HETATM   45  C34 UNL     1      -6.377   3.769  11.983  1.00  0.00     0.077 C 
HETATM   46  C35 UNL     1      -5.192   4.207  12.844  1.00  0.00     0.020 C 
HETATM   47  C36 UNL     1      -6.039   2.457  11.272  1.00  0.00     0.020 C 
ENDBRANCH  43  45
ENDBRANCH  42  43
ENDBRANCH  33  42
BRANCH  30  48
HETATM   48  O6  UNL     1     -16.538   6.860  13.498  1.00  0.00    -0.381 OA
HETATM   49  H40 UNL     1     -15.948   7.096  12.752  1.00  0.00     0.211 HD
ENDBRANCH  30  48
BRANCH  22  50
HETATM   50  O3  UNL     1     -16.733   3.910  16.858  1.00  0.00    -0.389 OA
HETATM   51  H34 UNL     1     -16.395   4.560  17.507  1.00  0.00     0.210 HD
ENDBRANCH  22  50
TORSDOF 7
ENDMDL
