MODEL 1
REMARK minimizedAffinity -7.54367304
REMARK CNNscore 0.608360291
REMARK CNNaffinity 6.38898897
REMARK  8 active torsions:
REMARK  status: ('A' for Active; 'I' for Inactive)
REMARK    1  A    between atoms: C4_4  and  C5_5 
REMARK    2  A    between atoms: C5_5  and  C6_6 
REMARK    3  A    between atoms: C6_6  and  C7_7 
REMARK    4  A    between atoms: C7_7  and  C9_9 
REMARK    5  A    between atoms: C18_18  and  C20_20 
REMARK    6  A    between atoms: C20_20  and  O2_22 
REMARK    7  A    between atoms: C21_23  and  O3_24 
REMARK    8  A    between atoms: C23_26  and  O4_27 
ROOT
HETATM    1  C9  UNL     1       5.043  55.941  -8.239  1.00  0.00    -0.002 C 
HETATM    2  C10 UNL     1       5.913  55.182  -9.280  1.00  0.00     0.006 C 
HETATM    3  C11 UNL     1       4.970  54.264 -10.071  1.00  0.00     0.011 C 
HETATM    4  C12 UNL     1       3.556  54.802  -9.784  1.00  0.00    -0.032 C 
HETATM    5  C13 UNL     1       3.339  56.012 -10.749  1.00  0.00     0.016 C 
HETATM    6  C14 UNL     1       2.427  53.755  -9.960  1.00  0.00     0.004 C 
HETATM    7  C15 UNL     1       2.196  53.327 -11.417  1.00  0.00     0.007 C 
HETATM    8  C16 UNL     1       1.142  52.228 -11.473  1.00  0.00     0.007 C 
HETATM    9  C17 UNL     1      -0.238  52.803 -11.117  1.00  0.00     0.018 C 
HETATM   10  C18 UNL     1      -1.402  51.747 -11.132  1.00  0.00     0.072 C 
HETATM   11  C19 UNL     1      -1.042  50.450 -10.374  1.00  0.00     0.030 C 
HETATM   12  C21 UNL     1      -2.732  52.358 -10.584  1.00  0.00     0.139 C 
HETATM   13  C22 UNL     1      -2.697  53.879 -10.540  1.00  0.00     0.065 C 
HETATM   14  C23 UNL     1      -1.559  54.419  -9.659  1.00  0.00     0.130 C 
HETATM   15  C24 UNL     1      -0.245  53.641  -9.829  1.00  0.00    -0.001 A 
HETATM   16  C25 UNL     1       0.358  53.062  -8.566  1.00  0.00     0.024 A 
HETATM   17  C26 UNL     1       1.111  54.182  -9.256  1.00  0.00    -0.025 A 
HETATM   18  C27 UNL     1       1.120  55.537  -8.530  1.00  0.00     0.011 C 
HETATM   19  C28 UNL     1       2.435  55.996  -7.866  1.00  0.00     0.011 C 
HETATM   20  C29 UNL     1       3.676  55.180  -8.260  1.00  0.00    -0.032 C 
HETATM   21  C30 UNL     1       3.730  53.953  -7.310  1.00  0.00     0.016 C 
ENDROOT
BRANCH   1  22
HETATM   22  C7  UNL     1       5.815  56.271  -6.924  1.00  0.00    -0.014 C 
HETATM   23  C8  UNL     1       5.675  57.712  -6.411  1.00  0.00     0.010 C 
BRANCH  22  24
HETATM   24  C6  UNL     1       7.296  55.826  -7.011  1.00  0.00     0.008 C 
BRANCH  24  25
HETATM   25  C5  UNL     1       8.020  55.690  -5.662  1.00  0.00     0.028 C 
BRANCH  25  26
HETATM   26  C4  UNL     1       8.901  56.853  -5.305  1.00  0.00    -0.025 C 
HETATM   27  C2  UNL     1      10.220  56.846  -5.022  1.00  0.00    -0.091 C 
HETATM   28  C1  UNL     1      10.934  58.125  -4.681  1.00  0.00     0.042 C 
HETATM   29  C3  UNL     1      11.103  55.623  -4.987  1.00  0.00     0.042 C 
ENDBRANCH  25  26
ENDBRANCH  24  25
ENDBRANCH  22  24
ENDBRANCH   1  22
BRANCH  14  30
HETATM   30  O4  UNL     1      -1.361  55.783 -10.038  1.00  0.00    -0.395 OA
HETATM   31  H39 UNL     1      -2.143  56.276  -9.734  1.00  0.00     0.210 HD
ENDBRANCH  14  30
BRANCH  10  32
HETATM   32  C20 UNL     1      -1.661  51.352 -12.589  1.00  0.00     0.151 C 
HETATM   33  O1  UNL     1      -1.839  50.224 -13.018  1.00  0.00    -0.649 OA
BRANCH  32  34
HETATM   34  O2  UNL     1      -1.707  52.396 -13.439  1.00  0.00    -0.776 OA
HETATM   35  H33 UNL     1      -1.842  51.985 -14.320  1.00  0.00     0.167 HD
ENDBRANCH  32  34
ENDBRANCH  10  32
BRANCH  12  36
HETATM   36  O3  UNL     1      -3.055  51.900  -9.263  1.00  0.00    -0.394 OA
HETATM   37  H35 UNL     1      -3.420  50.998  -9.343  1.00  0.00     0.210 HD
ENDBRANCH  12  36
TORSDOF 8
ENDMDL
