MODEL 1
REMARK minimizedAffinity -8.64968109
REMARK  10 active torsions:
REMARK  status: ('A' for Active; 'I' for Inactive)
REMARK    1  A    between atoms: C12_14  and  C13_15 
REMARK    2  A    between atoms: C13_15  and  C15_17 
REMARK    3  A    between atoms: C15_17  and  C16_18 
REMARK    4  A    between atoms: C16_18  and  C17_19 
REMARK    5  A    between atoms: C18_20  and  C20_22 
REMARK    6  A    between atoms: C20_22  and  O3_23 
REMARK    7  A    between atoms: C26_29  and  C27_30 
REMARK    8  A    between atoms: C27_30  and  C28_31 
REMARK    9  A    between atoms: C28_31  and  C29_32 
REMARK   10  A    between atoms: C29_32  and  O5_34 
ROOT
HETATM    1  C1  UNL     1       1.735   7.321  14.081  1.00  0.00     0.025 C 
HETATM    2  C2  UNL     1       0.666   8.127  14.044  1.00  0.00     0.015 C 
HETATM    3  C3  UNL     1       0.679   9.451  14.702  1.00  0.00     0.289 C 
HETATM    4  O1  UNL     1       1.639   9.997  15.212  1.00  0.00    -0.260 OA
HETATM    5  O2  UNL     1      -0.575   9.968  14.622  1.00  0.00    -0.311 OA
HETATM    6  C4  UNL     1      -1.501   8.982  14.127  1.00  0.00     0.142 C 
HETATM    7  C5  UNL     1      -2.333   8.487  15.302  1.00  0.00     0.039 C 
HETATM    8  C6  UNL     1      -3.245   7.286  15.012  1.00  0.00     0.006 C 
HETATM    9  C7  UNL     1      -2.553   6.178  14.184  1.00  0.00    -0.027 A 
HETATM   10  C8  UNL     1      -3.468   4.995  13.810  1.00  0.00     0.011 C 
HETATM   11  C9  UNL     1      -4.895   5.365  13.375  1.00  0.00     0.011 C 
HETATM   12  C10 UNL     1      -5.551   6.335  14.370  1.00  0.00    -0.032 C 
HETATM   13  C11 UNL     1      -5.701   5.624  15.752  1.00  0.00     0.016 C 
HETATM   14  C12 UNL     1      -6.942   6.934  13.975  1.00  0.00    -0.002 C 
HETATM   15  C21 UNL     1      -6.957   8.283  14.762  1.00  0.00     0.006 C 
HETATM   16  C22 UNL     1      -5.520   8.576  15.229  1.00  0.00     0.011 C 
HETATM   17  C23 UNL     1      -4.640   7.631  14.400  1.00  0.00    -0.032 C 
HETATM   18  C24 UNL     1      -4.457   8.299  13.000  1.00  0.00     0.016 C 
HETATM   19  C25 UNL     1      -1.198   5.716  14.662  1.00  0.00     0.022 A 
HETATM   20  C26 UNL     1      -1.263   6.515  13.371  1.00  0.00    -0.021 A 
HETATM   21  C31 UNL     1      -0.670   7.932  13.405  1.00  0.00     0.063 C 
ENDROOT
BRANCH  14  22
HETATM   22  C13 UNL     1      -8.251   6.114  14.205  1.00  0.00    -0.014 C 
HETATM   23  C14 UNL     1      -8.457   5.040  13.129  1.00  0.00     0.010 C 
BRANCH  22  24
HETATM   24  C15 UNL     1      -9.480   7.065  14.245  1.00  0.00     0.008 C 
BRANCH  24  25
HETATM   25  C16 UNL     1     -10.478   6.842  13.101  1.00  0.00     0.028 C 
BRANCH  25  26
HETATM   26  C17 UNL     1     -11.287   8.085  12.843  1.00  0.00    -0.022 C 
HETATM   27  C18 UNL     1     -12.624   8.234  12.948  1.00  0.00    -0.064 C 
HETATM   28  C19 UNL     1     -13.569   7.160  13.416  1.00  0.00     0.045 C 
BRANCH  27  29
HETATM   29  C20 UNL     1     -13.281   9.549  12.620  1.00  0.00     0.197 C 
BRANCH  29  30
HETATM   30  O3  UNL     1     -12.574  10.158  11.550  1.00  0.00    -0.397 OA
HETATM   31  H29 UNL     1     -13.013  11.007  11.376  1.00  0.00     0.209 HD
ENDBRANCH  29  30
ENDBRANCH  27  29
ENDBRANCH  25  26
ENDBRANCH  24  25
ENDBRANCH  22  24
ENDBRANCH  14  22
BRANCH  20  32
HETATM   32  C27 UNL     1      -1.071   5.830  12.006  1.00  0.00     0.021 C 
BRANCH  32  33
HETATM   33  C28 UNL     1      -0.244   4.546  12.025  1.00  0.00     0.112 C 
BRANCH  33  34
HETATM   34  C29 UNL     1      -0.962   3.421  11.318  1.00  0.00     0.258 C 
HETATM   35  O4  UNL     1      -2.090   3.484  10.850  1.00  0.00    -0.265 OA
BRANCH  34  36
HETATM   36  O5  UNL     1      -0.167   2.313  11.303  1.00  0.00    -0.326 OA
HETATM   37  C30 UNL     1      -0.812   1.141  10.805  1.00  0.00     0.213 C 
ENDBRANCH  34  36
ENDBRANCH  33  34
ENDBRANCH  32  33
ENDBRANCH  20  32
TORSDOF 10
ENDMDL
