MODEL 1
REMARK minimizedAffinity -8.57194901
REMARK CNNscore 0.37562719
REMARK CNNaffinity 6.17477465
REMARK  11 active torsions:
REMARK  status: ('A' for Active; 'I' for Inactive)
REMARK    1  A    between atoms: C3_3  and  O1_4 
REMARK    2  A    between atoms: N1_14  and  O2_16 
REMARK    3  A    between atoms: O2_16  and  C13_17 
REMARK    4  A    between atoms: C13_17  and  C14_18 
REMARK       I    between atoms: C14_18  and  N2_20 
REMARK    5  A    between atoms: N2_20  and  C15_21 
REMARK    6  A    between atoms: C15_21  and  C16_22 
REMARK    7  A    between atoms: C15_21  and  C17_25 
REMARK    8  A    between atoms: C16_22  and  O5_24 
REMARK    9  A    between atoms: C17_25  and  O6_26 
REMARK   10  A    between atoms: C17_25  and  C18_27 
REMARK   11  A    between atoms: C22_31  and  N3_32 
ROOT
HETATM    1  C1  UNL     1      -0.245  52.148 -18.480  1.00  0.00     0.015 C 
HETATM    2  C2  UNL     1      -0.391  51.749 -19.605  1.00  0.00    -0.078 C 
HETATM    3  C3  UNL     1      -0.553  51.237 -20.976  1.00  0.00     0.128 C 
HETATM    4  C4  UNL     1      -1.129  52.291 -21.934  1.00  0.00     0.052 C 
HETATM    5  C5  UNL     1      -1.929  51.510 -22.990  1.00  0.00     0.010 C 
HETATM    6  C6  UNL     1      -1.790  50.021 -22.625  1.00  0.00     0.002 C 
HETATM    7  C7  UNL     1      -2.952  49.107 -23.066  1.00  0.00    -0.004 C 
HETATM    8  C8  UNL     1      -3.198  49.224 -24.576  1.00  0.00     0.010 C 
HETATM    9  C9  UNL     1      -4.236  48.212 -25.036  1.00  0.00     0.035 C 
HETATM   10  C10 UNL     1      -5.534  48.338 -24.274  1.00  0.00    -0.069 C 
HETATM   11  C11 UNL     1      -6.695  48.320 -24.957  1.00  0.00     0.030 C 
HETATM   12  C12 UNL     1      -8.009  48.243 -24.272  1.00  0.00     0.032 C 
HETATM   13  N1  UNL     1      -9.055  48.026 -25.020  1.00  0.00    -0.271 N 
ATOM     14  H1  UNL     1      -9.022  47.973 -26.038  1.00  0.00     0.194 HD
HETATM   15  C24 UNL     1      -8.040  48.315 -22.760  1.00  0.00     0.060 C 
HETATM   16  C25 UNL     1      -6.788  48.980 -22.193  1.00  0.00     0.020 C 
HETATM   17  C26 UNL     1      -5.450  48.401 -22.744  1.00  0.00    -0.016 C 
HETATM   18  C27 UNL     1      -5.264  46.958 -22.224  1.00  0.00     0.020 C 
HETATM   19  C28 UNL     1      -4.267  49.349 -22.283  1.00  0.00     0.002 C 
HETATM   20  C29 UNL     1      -3.990  49.305 -20.763  1.00  0.00     0.007 C 
HETATM   21  C30 UNL     1      -2.866  50.255 -20.341  1.00  0.00     0.014 C 
HETATM   22  C31 UNL     1      -1.532  50.030 -21.100  1.00  0.00     0.003 C 
HETATM   23  C32 UNL     1      -0.874  48.714 -20.636  1.00  0.00     0.020 C 
ENDROOT
BRANCH   3  24
HETATM   24  O1  UNL     1       0.737  50.868 -21.475  1.00  0.00    -0.377 OA
HETATM   25  H2  UNL     1       1.353  51.582 -21.229  1.00  0.00     0.211 HD
ENDBRANCH   3  24
BRANCH  13  26
HETATM   26  O2  UNL     1     -10.229  47.875 -24.269  1.00  0.00    -0.271 OA
BRANCH  26  27
HETATM   27  C13 UNL     1     -11.015  46.855 -24.876  1.00  0.00     0.303 C 
BRANCH  27  28
HETATM   28  C14 UNL     1     -12.355  46.679 -24.167  1.00  0.00     0.244 C 
HETATM   29  O3  UNL     1     -12.506  46.905 -22.968  1.00  0.00    -0.271 OA
HETATM   30  N2  UNL     1     -13.365  46.179 -24.970  1.00  0.00    -0.342 N 
HETATM   31  H16 UNL     1     -13.038  45.742 -25.830  1.00  0.00     0.163 HD
BRANCH  30  32
HETATM   32  C15 UNL     1     -14.574  45.585 -24.353  1.00  0.00     0.216 C 
BRANCH  32  33
HETATM   33  C16 UNL     1     -15.003  44.355 -25.156  1.00  0.00     0.166 C 
HETATM   34  O4  UNL     1     -14.367  43.325 -25.309  1.00  0.00    -0.648 OA
BRANCH  33  35
HETATM   35  O5  UNL     1     -16.244  44.454 -25.692  1.00  0.00    -0.775 OA
HETATM   36  H18 UNL     1     -16.334  43.634 -26.228  1.00  0.00     0.167 HD
ENDBRANCH  33  35
ENDBRANCH  32  33
BRANCH  32  37
HETATM   37  C17 UNL     1     -15.719  46.622 -24.342  1.00  0.00     0.184 C 
BRANCH  37  38
HETATM   38  O6  UNL     1     -15.181  47.954 -24.399  1.00  0.00    -0.388 OA
HETATM   39  H20 UNL     1     -14.345  47.890 -24.897  1.00  0.00     0.210 HD
ENDBRANCH  37  38
BRANCH  37  40
HETATM   40  C18 UNL     1     -16.606  46.544 -23.117  1.00  0.00    -0.025 A 
HETATM   41  C19 UNL     1     -17.980  46.277 -23.256  1.00  0.00     0.010 A 
HETATM   42  C20 UNL     1     -18.806  46.153 -22.135  1.00  0.00     0.003 A 
HETATM   43  C21 UNL     1     -18.275  46.307 -20.854  1.00  0.00     0.036 A 
HETATM   44  C22 UNL     1     -16.910  46.590 -20.705  1.00  0.00     0.103 A 
HETATM   45  C23 UNL     1     -16.077  46.709 -21.828  1.00  0.00     0.045 A 
BRANCH  44  46
HETATM   46  N3  UNL     1     -16.345  46.733 -19.354  1.00  0.00    -0.116 N 
HETATM   47  O7  UNL     1     -15.738  45.763 -18.877  1.00  0.00    -0.532 OA
HETATM   48  O8  UNL     1     -16.519  47.808 -18.763  1.00  0.00    -0.532 OA
ENDBRANCH  44  46
ENDBRANCH  37  40
ENDBRANCH  32  37
ENDBRANCH  30  32
ENDBRANCH  27  28
ENDBRANCH  26  27
ENDBRANCH  13  26
TORSDOF 11
ENDMDL
