MODEL 1
REMARK minimizedAffinity -6.59769297
REMARK CNNscore 0.48507905
REMARK CNNaffinity 6.29514933
REMARK  11 active torsions:
REMARK  status: ('A' for Active; 'I' for Inactive)
REMARK    1  A    between atoms: C2_2  and  C3_3 
REMARK    2  A    between atoms: C2_2  and  C9_12 
REMARK    3  A    between atoms: C3_3  and  C4_4 
REMARK    4  A    between atoms: C4_4  and  O1_5 
REMARK    5  A    between atoms: C4_4  and  C5_6 
REMARK    6  A    between atoms: C5_6  and  O2_7 
REMARK    7  A    between atoms: C5_6  and  C6_8 
REMARK    8  A    between atoms: C6_8  and  O3_11 
REMARK    9  A    between atoms: C15_18  and  O4_19 
REMARK   10  A    between atoms: C22_27  and  C24_29 
REMARK   11  A    between atoms: C24_29  and  O6_30 
ROOT
HETATM    1  C9  UNL     1     -10.896  -6.956  -5.332  1.00  0.00    -0.002 C 
HETATM    2  C10 UNL     1      -9.785  -6.911  -6.418  1.00  0.00     0.006 C 
HETATM    3  C11 UNL     1      -8.639  -7.822  -5.952  1.00  0.00     0.011 C 
HETATM    4  C12 UNL     1      -9.220  -8.640  -4.782  1.00  0.00    -0.030 C 
HETATM    5  C13 UNL     1      -9.979  -9.844  -5.419  1.00  0.00     0.016 C 
HETATM    6  C14 UNL     1      -8.168  -9.152  -3.751  1.00  0.00     0.032 C 
HETATM    7  C15 UNL     1      -7.261 -10.302  -4.236  1.00  0.00     0.124 C 
HETATM    8  C16 UNL     1      -6.223 -10.648  -3.164  1.00  0.00     0.038 C 
HETATM    9  C17 UNL     1      -6.899 -11.290  -1.946  1.00  0.00     0.015 C 
HETATM   10  C18 UNL     1      -8.102 -10.495  -1.425  1.00  0.00    -0.026 A 
HETATM   11  C19 UNL     1      -8.934 -11.279  -0.407  1.00  0.00     0.018 C 
HETATM   12  C20 UNL     1      -8.210 -12.485   0.173  1.00  0.00     0.080 C 
HETATM   13  C21 UNL     1      -6.752 -12.178   0.410  1.00  0.00     0.137 C 
HETATM   14  O5  UNL     1      -6.222 -12.432   1.494  1.00  0.00    -0.297 OA
HETATM   15  C22 UNL     1      -5.925 -11.672  -0.779  1.00  0.00     0.042 C 
HETATM   16  C23 UNL     1      -5.062 -10.493  -0.296  1.00  0.00     0.026 C 
HETATM   17  C25 UNL     1      -8.002  -9.007  -1.178  1.00  0.00     0.021 A 
HETATM   18  C26 UNL     1      -8.808  -9.479  -2.372  1.00  0.00    -0.025 A 
HETATM   19  C27 UNL     1     -10.333  -9.385  -2.274  1.00  0.00     0.011 C 
HETATM   20  C28 UNL     1     -11.025  -8.259  -3.059  1.00  0.00     0.011 C 
HETATM   21  C29 UNL     1     -10.144  -7.562  -4.102  1.00  0.00    -0.032 C 
HETATM   22  C30 UNL     1      -9.355  -6.425  -3.383  1.00  0.00     0.016 C 
ENDROOT
BRANCH   1  23
HETATM   23  C2  UNL     1     -11.635  -5.590  -5.199  1.00  0.00    -0.011 C 
HETATM   24  C1  UNL     1     -13.071  -5.657  -5.737  1.00  0.00     0.010 C 
BRANCH  23  25
HETATM   25  C3  UNL     1     -10.869  -4.466  -5.950  1.00  0.00     0.039 C 
BRANCH  25  26
HETATM   26  C4  UNL     1     -11.227  -3.041  -5.482  1.00  0.00     0.150 C 
BRANCH  26  27
HETATM   27  O1  UNL     1     -10.970  -3.000  -4.071  1.00  0.00    -0.393 OA
HETATM   28  H8  UNL     1     -10.461  -2.180  -3.878  1.00  0.00     0.210 HD
ENDBRANCH  26  27
BRANCH  26  29
HETATM   29  C5  UNL     1     -10.481  -1.909  -6.245  1.00  0.00     0.180 C 
BRANCH  29  30
HETATM   30  O2  UNL     1      -9.518  -2.499  -7.135  1.00  0.00    -0.390 OA
HETATM   31  H10 UNL     1      -8.754  -2.752  -6.579  1.00  0.00     0.210 HD
ENDBRANCH  29  30
BRANCH  29  32
HETATM   32  C6  UNL     1      -9.731  -0.900  -5.323  1.00  0.00     0.079 C 
HETATM   33  C7  UNL     1      -8.920   0.100  -6.156  1.00  0.00     0.048 C 
HETATM   34  C8  UNL     1     -10.678  -0.148  -4.386  1.00  0.00     0.048 C 
BRANCH  32  35
HETATM   35  O3  UNL     1      -8.793  -1.655  -4.534  1.00  0.00    -0.388 OA
HETATM   36  H17 UNL     1      -8.354  -1.036  -3.917  1.00  0.00     0.210 HD
ENDBRANCH  32  35
ENDBRANCH  29  32
ENDBRANCH  26  29
ENDBRANCH  25  26
ENDBRANCH  23  25
ENDBRANCH   1  23
BRANCH   7  37
HETATM   37  O4  UNL     1      -6.557  -9.937  -5.422  1.00  0.00    -0.395 OA
HETATM   38  H28 UNL     1      -6.026  -9.147  -5.227  1.00  0.00     0.210 HD
ENDBRANCH   7  37
BRANCH  15  39
HETATM   39  C24 UNL     1      -5.028 -12.860  -1.199  1.00  0.00     0.181 C 
BRANCH  39  40
HETATM   40  O6  UNL     1      -3.701 -12.462  -1.532  1.00  0.00    -0.400 OA
HETATM   41  H41 UNL     1      -3.378 -11.869  -0.823  1.00  0.00     0.209 HD
ENDBRANCH  39  40
ENDBRANCH  15  39
TORSDOF 11
ENDMDL
