MODEL 1
REMARK minimizedAffinity -6.1170001
REMARK CNNscore 0.477473348
REMARK CNNaffinity 6.38374949
REMARK  6 active torsions:
REMARK  status: ('A' for Active; 'I' for Inactive)
REMARK    1  A    between atoms: C2_2  and  N1_3 
REMARK    2  A    between atoms: N1_3  and  C3_4 
REMARK    3  A    between atoms: N1_3  and  C22_25 
REMARK    4  A    between atoms: C3_4  and  C4_5 
REMARK    5  A    between atoms: C5_6  and  C6_7 
REMARK    6  A    between atoms: C9_11  and  C10_12 
ROOT
HETATM    1  C6  UNL     1     -13.652 -11.056  27.616  1.00  0.00    -0.033 C 
HETATM    2  C7  UNL     1     -13.164 -11.967  28.539  1.00  0.00     0.036 C 
HETATM    3  C8  UNL     1     -12.163 -12.881  28.175  1.00  0.00     0.043 C 
HETATM    4 CL1  UNL     1     -11.820 -14.079  29.394  1.00  0.00    -0.084 Cl
HETATM    5  C9  UNL     1     -11.551 -12.888  26.884  1.00  0.00    -0.010 C 
HETATM    6  C20 UNL     1     -12.148 -12.020  25.945  1.00  0.00     0.043 C 
HETATM    7 CL2  UNL     1     -11.868 -12.036  24.240  1.00  0.00    -0.084 Cl
HETATM    8  C21 UNL     1     -13.147 -11.099  26.321  1.00  0.00     0.036 C 
ENDROOT
BRANCH   1   9
HETATM    9  C5  UNL     1     -14.685 -10.096  28.011  1.00  0.00     0.009 C 
HETATM   10  C4  UNL     1     -14.753  -9.460  29.192  1.00  0.00    -0.007 C 
BRANCH  10  11
HETATM   11  C3  UNL     1     -13.776  -9.524  30.336  1.00  0.00     0.144 C 
BRANCH  11  12
HETATM   12  N1  UNL     1     -13.894  -8.383  31.254  1.00  0.00    -0.405 N 
BRANCH  12  13
HETATM   13  C2  UNL     1     -13.467  -8.730  32.614  1.00  0.00     0.113 C 
HETATM   14  C1  UNL     1     -14.308  -8.179  33.759  1.00  0.00     0.026 C 
ENDBRANCH  12  13
BRANCH  12  15
HETATM   15  C22 UNL     1     -13.493  -7.069  30.705  1.00  0.00     0.079 C 
HETATM   16  C23 UNL     1     -12.218  -6.429  31.285  1.00  0.00     0.025 C 
HETATM   17  C24 UNL     1     -11.759  -5.200  30.486  1.00  0.00     0.002 C 
HETATM   18  C25 UNL     1     -12.836  -4.605  29.582  1.00  0.00     0.000 C 
HETATM   19  C26 UNL     1     -14.202  -4.626  30.250  1.00  0.00     0.002 C 
HETATM   20  C27 UNL     1     -14.639  -6.029  30.687  1.00  0.00     0.025 C 
ENDBRANCH  12  15
ENDBRANCH  11  12
ENDBRANCH  10  11
ENDBRANCH   1   9
BRANCH   5  21
HETATM   21  C10 UNL     1     -10.369 -13.851  26.647  1.00  0.00     0.030 C 
HETATM   22  C11 UNL     1     -10.297 -14.851  25.448  1.00  0.00    -0.005 C 
HETATM   23  C12 UNL     1      -9.866 -14.182  24.122  1.00  0.00     0.010 C 
HETATM   24  C16 UNL     1      -9.221 -15.918  25.785  1.00  0.00     0.010 C 
HETATM   25  C13 UNL     1      -8.496 -13.514  24.268  1.00  0.00    -0.013 C 
HETATM   26  C14 UNL     1      -7.448 -14.574  24.630  1.00  0.00     0.009 C 
HETATM   27  C19 UNL     1      -8.600 -12.467  25.381  1.00  0.00     0.010 C 
HETATM   28  C15 UNL     1      -7.839 -15.261  25.947  1.00  0.00    -0.013 C 
HETATM   29  C17 UNL     1      -7.899 -14.198  27.055  1.00  0.00     0.010 C 
HETATM   30  C18 UNL     1      -8.968 -13.137  26.716  1.00  0.00    -0.005 C 
ENDBRANCH   5  21
TORSDOF 6
ENDMDL
