MODEL 1
REMARK minimizedAffinity -8.41394329
REMARK CNNscore 0.395120442
REMARK CNNaffinity 7.1064353
REMARK  9 active torsions:
REMARK  status: ('A' for Active; 'I' for Inactive)
REMARK    1  A    between atoms: C3_3  and  O1_4 
REMARK    2  A    between atoms: N1_14  and  O2_16 
REMARK    3  A    between atoms: O2_16  and  C13_17 
REMARK    4  A    between atoms: C13_17  and  C14_18 
REMARK       I    between atoms: C14_18  and  N2_20 
REMARK    5  A    between atoms: N2_20  and  C15_21 
REMARK    6  A    between atoms: C15_21  and  C16_22 
REMARK    7  A    between atoms: C15_21  and  C18_26 
REMARK    8  A    between atoms: C16_22  and  C17_23 
REMARK    9  A    between atoms: C17_23  and  O5_25 
ROOT
HETATM    1  C1  UNL     1      -2.017   8.840  11.906  1.00  0.00     0.015 C 
HETATM    2  C2  UNL     1      -2.049   8.039  12.801  1.00  0.00    -0.078 C 
HETATM    3  C3  UNL     1      -2.069   7.047  13.899  1.00  0.00     0.128 C 
HETATM    4  C4  UNL     1      -2.060   5.632  13.317  1.00  0.00     0.052 C 
HETATM    5  C5  UNL     1      -3.513   5.400  12.927  1.00  0.00     0.010 C 
HETATM    6  C6  UNL     1      -4.359   6.089  14.020  1.00  0.00     0.002 C 
HETATM    7  C7  UNL     1      -5.608   6.809  13.459  1.00  0.00    -0.004 C 
HETATM    8  C8  UNL     1      -6.535   5.898  12.620  1.00  0.00     0.010 C 
HETATM    9  C9  UNL     1      -7.626   5.186  13.412  1.00  0.00     0.035 C 
HETATM   10  C10 UNL     1      -8.377   6.223  14.206  1.00  0.00    -0.069 C 
HETATM   11  C11 UNL     1      -9.635   6.549  13.861  1.00  0.00     0.030 C 
HETATM   12  C12 UNL     1     -10.302   7.755  14.434  1.00  0.00     0.032 C 
HETATM   13  N1  UNL     1     -11.543   8.091  14.265  1.00  0.00    -0.271 N 
ATOM     14  H1  UNL     1     -11.970   8.930  14.657  1.00  0.00     0.194 HD
HETATM   15  C25 UNL     1      -9.419   8.713  15.208  1.00  0.00     0.060 C 
HETATM   16  C26 UNL     1      -8.443   7.935  16.075  1.00  0.00     0.020 C 
HETATM   17  C27 UNL     1      -7.553   6.932  15.278  1.00  0.00    -0.016 C 
HETATM   18  C28 UNL     1      -7.070   5.896  16.324  1.00  0.00     0.020 C 
HETATM   19  C29 UNL     1      -6.372   7.662  14.533  1.00  0.00     0.002 C 
HETATM   20  C30 UNL     1      -5.414   8.410  15.489  1.00  0.00     0.007 C 
HETATM   21  C31 UNL     1      -3.977   8.465  14.977  1.00  0.00     0.014 C 
HETATM   22  C32 UNL     1      -3.375   7.053  14.769  1.00  0.00     0.003 C 
HETATM   23  C33 UNL     1      -3.076   6.450  16.173  1.00  0.00     0.020 C 
ENDROOT
BRANCH   3  24
HETATM   24  O1  UNL     1      -0.902   7.244  14.684  1.00  0.00    -0.377 OA
HETATM   25  H2  UNL     1      -0.889   8.183  14.934  1.00  0.00     0.211 HD
ENDBRANCH   3  24
BRANCH  13  26
HETATM   26  O2  UNL     1     -12.225   7.151  13.473  1.00  0.00    -0.271 OA
BRANCH  26  27
HETATM   27  C13 UNL     1     -12.872   6.210  14.317  1.00  0.00     0.303 C 
BRANCH  27  28
HETATM   28  C14 UNL     1     -14.310   6.642  14.597  1.00  0.00     0.244 C 
HETATM   29  O3  UNL     1     -14.795   6.751  15.720  1.00  0.00    -0.271 OA
HETATM   30  N2  UNL     1     -15.037   6.888  13.446  1.00  0.00    -0.354 N 
HETATM   31  H16 UNL     1     -14.585   6.725  12.546  1.00  0.00     0.162 HD
BRANCH  30  32
HETATM   32  C15 UNL     1     -16.475   7.157  13.454  1.00  0.00     0.098 C 
BRANCH  32  33
HETATM   33  C16 UNL     1     -16.765   8.580  12.942  1.00  0.00     0.135 C 
BRANCH  33  34
HETATM   34  C17 UNL     1     -15.841   8.991  11.828  1.00  0.00     0.141 C 
HETATM   35  O4  UNL     1     -14.701   9.415  11.923  1.00  0.00    -0.650 OA
BRANCH  34  36
HETATM   36  O5  UNL     1     -16.409   8.832  10.616  1.00  0.00    -0.776 OA
HETATM   37  H20 UNL     1     -15.705   9.091   9.986  1.00  0.00     0.167 HD
ENDBRANCH  34  36
ENDBRANCH  33  34
ENDBRANCH  32  33
BRANCH  32  38
HETATM   38  C18 UNL     1     -17.283   6.031  12.726  1.00  0.00     0.014 C 
HETATM   39  C19 UNL     1     -18.726   6.464  12.410  1.00  0.00     0.033 C 
HETATM   40  C20 UNL     1     -19.732   6.104  13.503  1.00  0.00     0.169 C 
HETATM   41  O6  UNL     1     -19.088   5.731  14.725  1.00  0.00    -0.381 OA
HETATM   42  C21 UNL     1     -18.255   4.560  14.626  1.00  0.00     0.054 C 
HETATM   43  C22 UNL     1     -19.128   3.295  14.570  1.00  0.00     0.045 C 
HETATM   44  C23 UNL     1     -17.438   4.498  15.927  1.00  0.00     0.045 C 
HETATM   45  C24 UNL     1     -17.319   4.648  13.403  1.00  0.00     0.044 C 
ENDBRANCH  32  38
ENDBRANCH  30  32
ENDBRANCH  27  28
ENDBRANCH  26  27
ENDBRANCH  13  26
TORSDOF 9
ENDMDL
