MODEL 1
REMARK minimizedAffinity -6.04950714
REMARK CNNscore 0.383317977
REMARK CNNaffinity 5.80409813
REMARK  14 active torsions:
REMARK  status: ('A' for Active; 'I' for Inactive)
REMARK    1  A    between atoms: C2_2  and  C3_3 
REMARK    2  A    between atoms: C2_2  and  C26_30 
REMARK    3  A    between atoms: C4_4  and  C5_5 
REMARK    4  A    between atoms: C6_6  and  C7_7 
REMARK    5  A    between atoms: C6_6  and  C9_9 
REMARK    6  A    between atoms: C13_13  and  C14_14 
REMARK    7  A    between atoms: C14_14  and  C15_15 
REMARK    8  A    between atoms: C15_15  and  C16_16 
REMARK    9  A    between atoms: C16_16  and  O1_17 
REMARK   10  A    between atoms: C18_19  and  C20_21 
REMARK   11  A    between atoms: C23_25  and  O3_27 
REMARK   12  A    between atoms: C25_28  and  O4_29 
REMARK   13  A    between atoms: C26_30  and  C27_31 
REMARK   14  A    between atoms: C27_31  and  C28_32 
ROOT
HETATM    1  C9  UNL     1     -10.997 -10.034  14.834  1.00  0.00     0.044 C 
HETATM    2  C10 UNL     1     -10.870 -11.557  14.863  1.00  0.00     0.013 C 
HETATM    3  C11 UNL     1     -10.597 -11.940  13.409  1.00  0.00     0.017 C 
HETATM    4  C12 UNL     1      -9.935 -10.696  12.703  1.00  0.00     0.024 C 
HETATM    5  C13 UNL     1      -8.541 -11.198  12.093  1.00  0.00     0.029 C 
HETATM    6  C17 UNL     1      -8.128 -10.352  10.887  1.00  0.00    -0.066 C 
HETATM    7  C18 UNL     1      -7.171  -9.402  10.794  1.00  0.00    -0.021 C 
HETATM    8  C19 UNL     1      -6.769  -8.683   9.537  1.00  0.00     0.052 C 
HETATM    9  C21 UNL     1      -9.057 -10.652   9.714  1.00  0.00     0.038 C 
HETATM   10  C22 UNL     1     -10.508 -10.903  10.173  1.00  0.00     0.042 C 
HETATM   11  C23 UNL     1     -10.856 -10.153  11.481  1.00  0.00     0.065 C 
HETATM   12  C24 UNL     1     -12.383 -10.195  11.657  1.00  0.00     0.047 C 
HETATM   13  C25 UNL     1      -9.857  -9.641  13.867  1.00  0.00     0.138 C 
ENDROOT
BRANCH   5  14
HETATM   14  C14 UNL     1      -7.421 -11.679  13.057  1.00  0.00     0.012 C 
BRANCH  14  15
HETATM   15  C15 UNL     1      -6.365 -12.605  12.421  1.00  0.00     0.027 C 
BRANCH  15  16
HETATM   16  C16 UNL     1      -6.309 -14.020  12.985  1.00  0.00     0.164 C 
BRANCH  16  17
HETATM   17  O1  UNL     1      -5.894 -14.018  14.342  1.00  0.00    -0.401 OA
HETATM   18  H23 UNL     1      -5.045 -13.548  14.388  1.00  0.00     0.209 HD
ENDBRANCH  16  17
ENDBRANCH  15  16
ENDBRANCH  14  15
ENDBRANCH   5  14
BRANCH  11  19
HETATM   19  O3  UNL     1     -10.560  -8.770  11.199  1.00  0.00    -0.389 OA
HETATM   20  H35 UNL     1     -10.996  -8.211  11.863  1.00  0.00     0.210 HD
ENDBRANCH  11  19
BRANCH  13  21
HETATM   21  O4  UNL     1      -8.633  -9.700  14.588  1.00  0.00    -0.394 OA
HETATM   22  H37 UNL     1      -8.015  -9.090  14.124  1.00  0.00     0.210 HD
ENDBRANCH  13  21
BRANCH   1  23
HETATM   23  C6  UNL     1     -11.014  -9.300  16.178  1.00  0.00    -0.074 C 
HETATM   24  C5  UNL     1     -11.453  -8.026  16.303  1.00  0.00     0.003 C 
BRANCH  24  25
HETATM   25  C4  UNL     1     -11.915  -7.144  15.245  1.00  0.00     0.001 C 
HETATM   26  C3  UNL     1     -12.353  -5.901  15.493  1.00  0.00     0.006 C 
BRANCH  26  27
HETATM   27  C2  UNL     1     -12.837  -4.918  14.531  1.00  0.00    -0.067 C 
HETATM   28  C1  UNL     1     -12.934  -5.276  13.236  1.00  0.00     0.019 C 
BRANCH  27  29
HETATM   29  C26 UNL     1     -13.205  -3.504  14.942  1.00  0.00     0.041 C 
BRANCH  29  30
HETATM   30  C27 UNL     1     -14.712  -3.298  15.167  1.00  0.00     0.032 C 
BRANCH  30  31
HETATM   31  C28 UNL     1     -15.090  -1.894  15.551  1.00  0.00    -0.024 C 
HETATM   32  C29 UNL     1     -15.864  -1.498  16.581  1.00  0.00    -0.091 C 
HETATM   33  C30 UNL     1     -16.483  -2.415  17.601  1.00  0.00     0.042 C 
HETATM   34  C31 UNL     1     -16.163  -0.038  16.805  1.00  0.00     0.042 C 
ENDBRANCH  30  31
ENDBRANCH  29  30
ENDBRANCH  27  29
ENDBRANCH  26  27
ENDBRANCH  24  25
BRANCH  23  35
HETATM   35  C7  UNL     1     -10.515 -10.102  17.377  1.00  0.00     0.030 C 
HETATM   36  C8  UNL     1      -9.694  -9.374  18.440  1.00  0.00     0.010 C 
ENDBRANCH  23  35
ENDBRANCH   1  23
BRANCH   7  37
HETATM   37  C20 UNL     1      -6.410  -8.911  11.975  1.00  0.00     0.265 C 
HETATM   38  O2  UNL     1      -6.875  -8.112  12.779  1.00  0.00    -0.302 OA
ENDBRANCH   7  37
TORSDOF 14
ENDMDL
