MODEL 1
REMARK minimizedAffinity -9.27602386
REMARK  5 active torsions:
REMARK  status: ('A' for Active; 'I' for Inactive)
REMARK    1  A    between atoms: C2_2  and  C4_4 
REMARK    2  A    between atoms: C7_7  and  C8_8 
REMARK    3  A    between atoms: C8_8  and  O2_10 
REMARK    4  A    between atoms: C11_13  and  C12_14 
REMARK    5  A    between atoms: C12_14  and  O4_16 
ROOT
HETATM    1  C4  UNL     1      -2.203  49.023 -16.960  1.00  0.00     0.019 C 
HETATM    2  C5  UNL     1      -3.020  48.073 -16.046  1.00  0.00     0.011 C 
HETATM    3  C6  UNL     1      -3.705  47.058 -16.973  1.00  0.00     0.021 C 
HETATM    4  C7  UNL     1      -3.796  47.789 -18.317  1.00  0.00     0.050 C 
HETATM    5  C9  UNL     1      -3.966  46.882 -19.536  1.00  0.00     0.022 C 
HETATM    6  C10 UNL     1      -3.785  47.671 -20.850  1.00  0.00     0.023 C 
HETATM    7  C11 UNL     1      -2.517  48.608 -20.958  1.00  0.00     0.057 C 
HETATM    8  C13 UNL     1      -2.233  49.353 -19.612  1.00  0.00     0.011 C 
HETATM    9  C14 UNL     1      -0.877  50.064 -19.655  1.00  0.00     0.007 C 
HETATM   10  C15 UNL     1      -0.537  50.719 -20.998  1.00  0.00     0.006 C 
HETATM   11  C16 UNL     1      -1.749  51.019 -21.908  1.00  0.00     0.003 C 
HETATM   12  C17 UNL     1      -1.368  51.873 -23.229  1.00  0.00    -0.035 C 
HETATM   13  C18 UNL     1      -2.493  52.923 -23.460  1.00  0.00     0.016 C 
HETATM   14  C19 UNL     1      -0.046  52.676 -23.032  1.00  0.00     0.017 C 
HETATM   15  C20 UNL     1       0.429  53.435 -24.262  1.00  0.00     0.080 C 
HETATM   16  C21 UNL     1       0.580  52.511 -25.442  1.00  0.00     0.135 C 
HETATM   17  O5  UNL     1       1.570  52.614 -26.171  1.00  0.00    -0.297 OA
HETATM   18  C22 UNL     1      -0.581  51.556 -25.767  1.00  0.00     0.017 C 
HETATM   19  C23 UNL     1      -1.611  52.328 -26.605  1.00  0.00     0.023 C 
HETATM   20  C24 UNL     1      -0.006  50.433 -26.672  1.00  0.00     0.023 C 
HETATM   21  C25 UNL     1      -1.150  50.915 -24.447  1.00  0.00     0.009 C 
HETATM   22  C26 UNL     1      -2.402  50.054 -24.686  1.00  0.00     0.007 C 
HETATM   23  C27 UNL     1      -2.613  49.092 -23.529  1.00  0.00     0.011 C 
HETATM   24  C28 UNL     1      -2.717  49.749 -22.123  1.00  0.00    -0.022 C 
HETATM   25  C29 UNL     1      -4.174  50.327 -22.052  1.00  0.00     0.017 C 
HETATM   26  C30 UNL     1      -2.396  48.438 -18.380  1.00  0.00     0.018 C 
ENDROOT
BRANCH   4  27
HETATM   27  C8  UNL     1      -4.979  48.767 -18.232  1.00  0.00     0.149 C 
HETATM   28  O1  UNL     1      -5.064  49.879 -18.722  1.00  0.00    -0.649 OA
BRANCH  27  29
HETATM   29  O2  UNL     1      -6.003  48.292 -17.493  1.00  0.00    -0.776 OA
HETATM   30  H11 UNL     1      -6.661  49.017 -17.505  1.00  0.00     0.167 HD
ENDBRANCH  27  29
ENDBRANCH   4  27
BRANCH   1  31
HETATM   31  C2  UNL     1      -0.770  49.183 -16.481  1.00  0.00    -0.088 C 
HETATM   32  C1  UNL     1      -0.132  48.171 -15.866  1.00  0.00     0.014 C 
HETATM   33  C3  UNL     1      -0.062  50.491 -16.726  1.00  0.00     0.043 C 
ENDBRANCH   1  31
BRANCH   7  34
HETATM   34  C12 UNL     1      -1.295  47.688 -21.278  1.00  0.00     0.149 C 
HETATM   35  O3  UNL     1      -0.153  47.780 -20.855  1.00  0.00    -0.649 OA
BRANCH  34  36
HETATM   36  O4  UNL     1      -1.563  46.648 -22.089  1.00  0.00    -0.776 OA
HETATM   37  H16 UNL     1      -0.699  46.189 -22.163  1.00  0.00     0.167 HD
ENDBRANCH  34  36
ENDBRANCH   7  34
TORSDOF 5
ENDMDL
