MODEL 1
REMARK minimizedAffinity -8.34909725
REMARK  13 active torsions:
REMARK  status: ('A' for Active; 'I' for Inactive)
REMARK    1  A    between atoms: C4_4  and  C5_5 
REMARK    2  A    between atoms: C5_5  and  C6_6 
REMARK    3  A    between atoms: C6_6  and  C7_7 
REMARK    4  A    between atoms: C9_9  and  C10_10 
REMARK    5  A    between atoms: C11_11  and  C12_12 
REMARK    6  A    between atoms: C14_14  and  C15_15 
REMARK    7  A    between atoms: C18_18  and  O1_19 
REMARK    8  A    between atoms: C19_21  and  C20_22 
REMARK    9  A    between atoms: C20_22  and  C21_23 
REMARK   10  A    between atoms: C21_23  and  C22_24 
REMARK   11  A    between atoms: C22_24  and  O3_25 
REMARK   12  A    between atoms: C24_27  and  C26_29 
REMARK   13  A    between atoms: C29_33  and  O5_35 
ROOT
HETATM    1  C15 UNL     1      -2.942  49.055 -26.283  1.00  0.00     0.149 C 
HETATM    2  C16 UNL     1      -3.386  50.408 -25.692  1.00  0.00     0.054 C 
HETATM    3  C17 UNL     1      -3.262  50.185 -24.164  1.00  0.00     0.050 C 
HETATM    4  C18 UNL     1      -3.749  48.726 -24.154  1.00  0.00     0.270 C 
HETATM    5  O2  UNL     1      -3.074  48.083 -25.227  1.00  0.00    -0.351 OA
HETATM    6  C19 UNL     1      -1.720  50.363 -23.777  1.00  0.00     0.032 C 
HETATM    7  C23 UNL     1      -1.320  51.856 -23.846  1.00  0.00    -0.066 C 
HETATM    8  C24 UNL     1      -0.296  52.307 -24.615  1.00  0.00    -0.021 C 
HETATM    9  C25 UNL     1       0.607  51.440 -25.456  1.00  0.00     0.052 C 
HETATM   10  C27 UNL     1      -2.217  52.719 -22.978  1.00  0.00     0.038 C 
HETATM   11  C28 UNL     1      -3.682  52.577 -23.384  1.00  0.00     0.042 C 
HETATM   12  C29 UNL     1      -4.174  51.122 -23.302  1.00  0.00     0.067 C 
HETATM   13  C30 UNL     1      -5.671  51.104 -23.657  1.00  0.00     0.047 C 
ENDROOT
BRANCH   4  14
HETATM   14  O1  UNL     1      -3.530  48.063 -22.936  1.00  0.00    -0.370 OA
HETATM   15  H26 UNL     1      -3.760  47.135 -23.123  1.00  0.00     0.212 HD
ENDBRANCH   4  14
BRANCH   6  16
HETATM   16  C20 UNL     1      -1.224  49.771 -22.431  1.00  0.00     0.012 C 
BRANCH  16  17
HETATM   17  C21 UNL     1      -0.421  50.789 -21.609  1.00  0.00     0.027 C 
BRANCH  17  18
HETATM   18  C22 UNL     1      -0.717  50.665 -20.121  1.00  0.00     0.164 C 
BRANCH  18  19
HETATM   19  O3  UNL     1       0.063  51.603 -19.391  1.00  0.00    -0.401 OA
HETATM   20  H34 UNL     1      -0.149  52.488 -19.733  1.00  0.00     0.209 HD
ENDBRANCH  18  19
ENDBRANCH  17  18
ENDBRANCH  16  17
ENDBRANCH   6  16
BRANCH  12  21
HETATM   21  O5  UNL     1      -4.119  50.744 -21.919  1.00  0.00    -0.389 OA
HETATM   22  H46 UNL     1      -4.168  49.771 -21.862  1.00  0.00     0.210 HD
ENDBRANCH  12  21
BRANCH   1  23
HETATM   23  C14 UNL     1      -3.790  48.606 -27.438  1.00  0.00     0.011 C 
HETATM   24  C12 UNL     1      -5.058  48.139 -27.411  1.00  0.00    -0.063 C 
HETATM   25  C13 UNL     1      -5.889  48.030 -26.157  1.00  0.00     0.048 C 
BRANCH  24  26
HETATM   26  C11 UNL     1      -5.677  47.732 -28.677  1.00  0.00     0.006 C 
HETATM   27  C10 UNL     1      -6.991  47.749 -28.966  1.00  0.00     0.001 C 
BRANCH  27  28
HETATM   28  C9  UNL     1      -7.509  47.326 -30.252  1.00  0.00     0.002 C 
HETATM   29  C7  UNL     1      -8.195  48.074 -31.139  1.00  0.00    -0.084 C 
HETATM   30  C8  UNL     1      -8.580  49.521 -30.967  1.00  0.00     0.043 C 
BRANCH  29  31
HETATM   31  C6  UNL     1      -8.662  47.452 -32.446  1.00  0.00     0.037 C 
BRANCH  31  32
HETATM   32  C5  UNL     1      -7.574  46.601 -33.110  1.00  0.00     0.031 C 
BRANCH  32  33
HETATM   33  C4  UNL     1      -6.487  47.462 -33.697  1.00  0.00    -0.024 C 
HETATM   34  C2  UNL     1      -5.175  47.459 -33.393  1.00  0.00    -0.091 C 
HETATM   35  C1  UNL     1      -4.527  46.597 -32.345  1.00  0.00     0.042 C 
HETATM   36  C3  UNL     1      -4.219  48.375 -34.115  1.00  0.00     0.042 C 
ENDBRANCH  32  33
ENDBRANCH  31  32
ENDBRANCH  29  31
ENDBRANCH  27  28
ENDBRANCH  24  26
ENDBRANCH   1  23
BRANCH   8  37
HETATM   37  C26 UNL     1       0.064  53.761 -24.702  1.00  0.00     0.265 C 
HETATM   38  O4  UNL     1       0.590  54.254 -25.696  1.00  0.00    -0.302 OA
ENDBRANCH   8  37
TORSDOF 13
ENDMDL
