MODEL 1
REMARK minimizedAffinity -7.93469572
REMARK CNNscore 0.345906436
REMARK CNNaffinity 5.70355606
REMARK  5 active torsions:
REMARK  status: ('A' for Active; 'I' for Inactive)
REMARK    1  A    between atoms: C2_2  and  C3_3 
REMARK    2  A    between atoms: C6_6  and  C7_7 
REMARK    3  A    between atoms: C7_7  and  O1_9 
REMARK    4  A    between atoms: C23_29  and  O6_30 
REMARK    5  A    between atoms: C28_36  and  O8_37 
ROOT
HETATM    1  C3  UNL     1       5.656  13.197  22.356  1.00  0.00     0.008 C 
HETATM    2  C4  UNL     1       4.445  12.699  23.124  1.00  0.00    -0.023 C 
HETATM    3  C5  UNL     1       3.314  12.073  22.741  1.00  0.00     0.004 C 
HETATM    4  C6  UNL     1       2.709  11.606  21.426  1.00  0.00     0.183 C 
HETATM    5  O2  UNL     1       3.408  12.060  20.255  1.00  0.00    -0.306 OA
HETATM    6  C9  UNL     1       2.634  12.163  19.131  1.00  0.00     0.289 C 
HETATM    7  O3  UNL     1       1.420  12.037  19.064  1.00  0.00    -0.260 OA
HETATM    8  C10 UNL     1       3.508  12.446  17.966  1.00  0.00     0.010 C 
HETATM    9  C11 UNL     1       3.516  13.858  17.493  1.00  0.00     0.054 C 
HETATM   10  C12 UNL     1       4.279  11.415  17.565  1.00  0.00     0.004 C 
HETATM   11  C13 UNL     1       5.622  11.529  16.866  1.00  0.00     0.147 C 
HETATM   12  C14 UNL     1       6.005  10.278  16.057  1.00  0.00     0.233 C 
HETATM   13  O4  UNL     1       5.347   9.755  15.175  1.00  0.00    -0.272 OA
HETATM   14  N1  UNL     1       7.258   9.839  16.469  1.00  0.00    -0.327 N 
HETATM   15  C15 UNL     1       7.775  10.570  17.488  1.00  0.00     0.056 C 
HETATM   16  C16 UNL     1       8.939  10.423  18.130  1.00  0.00     0.084 C 
HETATM   17  C17 UNL     1       9.199  11.370  19.268  1.00  0.00     0.185 C 
HETATM   18  O5  UNL     1      10.045  11.104  20.107  1.00  0.00    -0.287 OA
HETATM   19  C18 UNL     1       8.459  12.680  19.262  1.00  0.00     0.040 C 
HETATM   20  C19 UNL     1       7.438  12.855  18.316  1.00  0.00    -0.001 C 
HETATM   21  C20 UNL     1       7.029  14.148  17.981  1.00  0.00     0.021 C 
HETATM   22  C21 UNL     1       7.534  15.251  18.685  1.00  0.00    -0.027 C 
HETATM   23  C22 UNL     1       7.067  16.637  18.344  1.00  0.00     0.051 C 
HETATM   24  C23 UNL     1       8.327  15.015  19.816  1.00  0.00     0.086 C 
HETATM   25  C24 UNL     1       8.706  13.709  20.153  1.00  0.00     0.058 C 
HETATM   26  C25 UNL     1       8.930  13.415  21.590  1.00  0.00     0.163 C 
HETATM   27  O7  UNL     1       9.631  14.193  22.239  1.00  0.00    -0.292 OA
HETATM   28  C26 UNL     1       8.115  12.294  22.236  1.00  0.00     0.084 C 
HETATM   29  C27 UNL     1       6.963  12.791  23.124  1.00  0.00     0.016 C 
HETATM   30  C28 UNL     1       6.757  11.573  17.931  1.00  0.00     0.143 C 
HETATM   31  H20 UNL     1       7.702   9.043  16.028  1.00  0.00     0.168 HD
ENDROOT
BRANCH   4  32
HETATM   32  C7  UNL     1       2.575  10.050  21.413  1.00  0.00     0.147 C 
HETATM   33  C8  UNL     1       3.606   9.344  22.288  1.00  0.00     0.042 C 
BRANCH  32  34
HETATM   34  O1  UNL     1       2.708   9.492  20.095  1.00  0.00    -0.393 OA
HETATM   35  H14 UNL     1       2.432  10.164  19.436  1.00  0.00     0.210 HD
ENDBRANCH  32  34
ENDBRANCH   4  32
BRANCH   1  36
HETATM   36  C2  UNL     1       5.571  14.742  22.273  1.00  0.00     0.004 C 
HETATM   37  C1  UNL     1       6.372  15.470  23.347  1.00  0.00     0.006 C 
ENDBRANCH   1  36
BRANCH  30  38
HETATM   38  O8  UNL     1       6.288  11.055  19.206  1.00  0.00    -0.377 OA
HETATM   39  H31 UNL     1       6.022  10.129  19.082  1.00  0.00     0.211 HD
ENDBRANCH  30  38
BRANCH  24  40
HETATM   40  O6  UNL     1       8.637  16.084  20.620  1.00  0.00    -0.359 OA
HETATM   41  H26 UNL     1       9.137  15.736  21.395  1.00  0.00     0.217 HD
ENDBRANCH  24  40
TORSDOF 5
ENDMDL
