MODEL 1
REMARK minimizedAffinity -10.0273952
REMARK  5 active torsions:
REMARK  status: ('A' for Active; 'I' for Inactive)
REMARK    1  A    between atoms: C2_2  and  C4_4 
REMARK    2  A    between atoms: C10_10  and  C11_11 
REMARK    3  A    between atoms: C11_11  and  O2_13 
REMARK    4  A    between atoms: C20_22  and  C22_24 
REMARK    5  A    between atoms: C22_24  and  O3_25 
ROOT
HETATM    1  C4  UNL     1      -5.278  48.041 -25.528  1.00  0.00     0.025 C 
HETATM    2  C5  UNL     1      -6.752  47.669 -25.801  1.00  0.00     0.037 C 
HETATM    3  C6  UNL     1      -7.480  48.291 -24.656  1.00  0.00    -0.023 C 
HETATM    4  C7  UNL     1      -6.716  49.167 -23.996  1.00  0.00    -0.078 C 
HETATM    5  C8  UNL     1      -7.102  49.996 -22.820  1.00  0.00     0.036 C 
HETATM    6  C9  UNL     1      -6.000  49.973 -21.752  1.00  0.00     0.026 C 
HETATM    7  C10 UNL     1      -4.572  50.313 -22.313  1.00  0.00     0.057 C 
HETATM    8  C12 UNL     1      -4.264  49.249 -23.441  1.00  0.00     0.014 C 
HETATM    9  C13 UNL     1      -2.828  49.303 -23.994  1.00  0.00     0.007 C 
HETATM   10  C14 UNL     1      -1.751  49.360 -22.914  1.00  0.00     0.007 C 
HETATM   11  C15 UNL     1      -2.022  50.455 -21.873  1.00  0.00     0.007 C 
HETATM   12  C16 UNL     1      -0.836  50.710 -20.886  1.00  0.00    -0.018 C 
HETATM   13  C17 UNL     1      -0.387  49.458 -20.097  1.00  0.00     0.020 C 
HETATM   14  C18 UNL     1       0.436  51.303 -21.466  1.00  0.00    -0.020 C 
HETATM   15  C19 UNL     1       0.942  52.263 -20.669  1.00  0.00    -0.018 C 
HETATM   16  C20 UNL     1       0.039  52.588 -19.489  1.00  0.00    -0.001 C 
HETATM   17  C21 UNL     1      -0.133  54.112 -19.364  1.00  0.00     0.022 C 
HETATM   18  C23 UNL     1      -1.255  51.944 -20.039  1.00  0.00     0.012 C 
HETATM   19  C24 UNL     1      -2.453  51.658 -19.150  1.00  0.00     0.007 C 
HETATM   20  C25 UNL     1      -3.663  51.362 -20.062  1.00  0.00     0.011 C 
HETATM   21  C26 UNL     1      -3.435  50.262 -21.166  1.00  0.00    -0.021 C 
HETATM   22  C27 UNL     1      -3.517  48.901 -20.412  1.00  0.00     0.017 C 
HETATM   23  C28 UNL     1      -5.328  49.271 -24.572  1.00  0.00     0.028 C 
ENDROOT
BRANCH   7  24
HETATM   24  C11 UNL     1      -4.693  51.754 -22.869  1.00  0.00     0.149 C 
HETATM   25  O1  UNL     1      -3.765  52.512 -23.110  1.00  0.00    -0.649 OA
BRANCH  24  26
HETATM   26  O2  UNL     1      -5.941  52.175 -23.123  1.00  0.00    -0.776 OA
HETATM   27  H14 UNL     1      -5.816  53.082 -23.475  1.00  0.00     0.167 HD
ENDBRANCH  24  26
ENDBRANCH   7  24
BRANCH   1  28
HETATM   28  C2  UNL     1      -4.476  48.216 -26.812  1.00  0.00    -0.088 C 
HETATM   29  C1  UNL     1      -5.074  48.148 -28.015  1.00  0.00     0.014 C 
HETATM   30  C3  UNL     1      -2.998  48.483 -26.710  1.00  0.00     0.043 C 
ENDBRANCH   1  28
BRANCH  16  31
HETATM   31  C22 UNL     1       0.538  51.993 -18.156  1.00  0.00     0.177 C 
BRANCH  31  32
HETATM   32  O3  UNL     1       1.208  52.959 -17.348  1.00  0.00    -0.400 OA
HETATM   33  H31 UNL     1       0.537  53.560 -16.984  1.00  0.00     0.209 HD
ENDBRANCH  31  32
ENDBRANCH  16  31
TORSDOF 5
ENDMDL
