MODEL 1
REMARK minimizedAffinity -7.11163187
REMARK CNNscore 0.63791573
REMARK CNNaffinity 6.9871192
REMARK  7 active torsions:
REMARK  status: ('A' for Active; 'I' for Inactive)
REMARK    1  A    between atoms: C4_4  and  C5_5 
REMARK    2  A    between atoms: C5_5  and  C6_6 
REMARK    3  A    between atoms: C6_6  and  C7_7 
REMARK    4  A    between atoms: C7_7  and  C9_9 
REMARK    5  A    between atoms: C23_23  and  O1_24 
REMARK    6  A    between atoms: C24_25  and  C26_27 
REMARK    7  A    between atoms: C26_27  and  O2_28 
ROOT
HETATM    1  C9  UNL     1       4.637  55.302  -9.423  1.00  0.00    -0.002 C 
HETATM    2  C10 UNL     1       4.046  55.283 -10.843  1.00  0.00     0.006 C 
HETATM    3  C11 UNL     1       3.622  53.846 -11.068  1.00  0.00     0.010 C 
HETATM    4  C12 UNL     1       3.163  53.329  -9.695  1.00  0.00     0.023 C 
HETATM    5  C13 UNL     1       1.694  52.955  -9.726  1.00  0.00    -0.072 C 
HETATM    6  C14 UNL     1       0.724  53.849  -9.439  1.00  0.00    -0.068 C 
HETATM    7  C15 UNL     1       1.115  55.245  -9.017  1.00  0.00     0.036 C 
HETATM    8  C16 UNL     1       2.380  55.282  -8.165  1.00  0.00     0.014 C 
HETATM    9  C17 UNL     1       3.582  54.411  -8.648  1.00  0.00    -0.032 C 
HETATM   10  C18 UNL     1       4.112  53.700  -7.388  1.00  0.00     0.016 C 
HETATM   11  C19 UNL     1      -0.781  53.501  -9.542  1.00  0.00    -0.016 C 
HETATM   12  C20 UNL     1      -1.210  53.146  -8.100  1.00  0.00     0.020 C 
HETATM   13  C21 UNL     1      -1.616  54.708 -10.043  1.00  0.00     0.016 C 
HETATM   14  C22 UNL     1      -3.069  54.361 -10.340  1.00  0.00     0.034 C 
HETATM   15  C23 UNL     1      -3.189  53.248 -11.376  1.00  0.00     0.128 C 
HETATM   16  C24 UNL     1      -2.424  51.947 -10.995  1.00  0.00     0.008 C 
HETATM   17  C25 UNL     1      -3.190  51.157  -9.909  1.00  0.00     0.020 C 
HETATM   18  C27 UNL     1      -0.952  52.331 -10.584  1.00  0.00     0.011 C 
HETATM   19  C28 UNL     1      -0.062  51.139 -10.190  1.00  0.00     0.011 C 
HETATM   20  C29 UNL     1       1.413  51.541 -10.175  1.00  0.00     0.035 C 
ENDROOT
BRANCH   1  21
HETATM   21  C7  UNL     1       6.135  54.836  -9.356  1.00  0.00    -0.014 C 
HETATM   22  C8  UNL     1       6.252  53.299  -9.308  1.00  0.00     0.010 C 
BRANCH  21  23
HETATM   23  C6  UNL     1       6.978  55.437  -8.197  1.00  0.00     0.008 C 
BRANCH  23  24
HETATM   24  C5  UNL     1       6.282  56.381  -7.206  1.00  0.00     0.028 C 
BRANCH  24  25
HETATM   25  C4  UNL     1       7.026  56.668  -5.934  1.00  0.00    -0.025 C 
HETATM   26  C2  UNL     1       6.622  57.453  -4.913  1.00  0.00    -0.091 C 
HETATM   27  C1  UNL     1       7.466  57.585  -3.674  1.00  0.00     0.042 C 
HETATM   28  C3  UNL     1       5.340  58.239  -4.891  1.00  0.00     0.042 C 
ENDBRANCH  24  25
ENDBRANCH  23  24
ENDBRANCH  21  23
ENDBRANCH   1  21
BRANCH  16  29
HETATM   29  C26 UNL     1      -2.370  51.032 -12.263  1.00  0.00     0.176 C 
BRANCH  29  30
HETATM   30  O2  UNL     1      -1.650  51.653 -13.328  1.00  0.00    -0.400 OA
HETATM   31  H43 UNL     1      -1.726  51.065 -14.101  1.00  0.00     0.209 HD
ENDBRANCH  29  30
ENDBRANCH  16  29
BRANCH  15  32
HETATM   32  O1  UNL     1      -4.579  53.010 -11.573  1.00  0.00    -0.395 OA
HETATM   33  H37 UNL     1      -4.644  52.252 -12.195  1.00  0.00     0.210 HD
ENDBRANCH  15  32
TORSDOF 7
ENDMDL
