MODEL 1
REMARK minimizedAffinity -6.59647179
REMARK CNNscore 0.443464577
REMARK CNNaffinity 6.67848587
REMARK  14 active torsions:
REMARK  status: ('A' for Active; 'I' for Inactive)
REMARK    1  A    between atoms: C2_2  and  C4_4 
REMARK    2  A    between atoms: C5_6  and  C6_7 
REMARK    3  A    between atoms: C7_8  and  C8_9 
REMARK    4  A    between atoms: C9_10  and  C10_11 
REMARK    5  A    between atoms: C10_11  and  C11_12 
REMARK    6  A    between atoms: C11_12  and  C12_13 
REMARK    7  A    between atoms: C12_13  and  C13_14 
REMARK    8  A    between atoms: C18_21  and  C19_22 
REMARK    9  A    between atoms: C19_22  and  O4_23 
REMARK   10  A    between atoms: C20_24  and  O5_25 
REMARK   11  A    between atoms: C21_26  and  O6_27 
REMARK   12  A    between atoms: C30_38  and  O9_39 
REMARK   13  A    between atoms: O9_39  and  C31_40 
REMARK   14  A    between atoms: C31_40  and  C32_41 
ROOT
HETATM    1  C4  UNL     1       2.696  54.638  -9.449  1.00  0.00     0.142 C 
HETATM    2  O1  UNL     1       2.530  55.265  -8.157  1.00  0.00    -0.308 OA
HETATM    3  C5  UNL     1       1.150  55.570  -8.091  1.00  0.00     0.306 C 
HETATM    4  O2  UNL     1       0.723  55.886  -9.402  1.00  0.00    -0.320 OA
HETATM    5  C15 UNL     1       1.305  54.801 -10.131  1.00  0.00     0.179 C 
HETATM    6  C16 UNL     1       0.342  53.614  -9.904  1.00  0.00     0.086 C 
HETATM    7  C17 UNL     1      -1.026  53.962 -10.456  1.00  0.00     0.172 A 
HETATM    8  O3  UNL     1      -2.095  54.159  -9.536  1.00  0.00    -0.363 OA
HETATM    9  C18 UNL     1      -2.265  53.055 -10.447  1.00  0.00     0.138 A 
HETATM   10  C20 UNL     1      -2.351  51.694  -9.768  1.00  0.00     0.200 C 
HETATM   11  C21 UNL     1      -1.170  51.266  -8.880  1.00  0.00     0.161 C 
HETATM   12  C22 UNL     1      -1.530  50.140  -7.913  1.00  0.00     0.192 C 
HETATM   13  O7  UNL     1      -1.996  49.057  -8.243  1.00  0.00    -0.289 OA
HETATM   14  C23 UNL     1      -1.103  50.436  -6.535  1.00  0.00    -0.016 C 
HETATM   15  C24 UNL     1      -1.246  49.481  -5.418  1.00  0.00     0.052 C 
HETATM   16  C25 UNL     1      -0.614  51.679  -6.563  1.00  0.00    -0.005 C 
HETATM   17  C26 UNL     1      -0.712  52.369  -7.901  1.00  0.00     0.090 C 
HETATM   18  C27 UNL     1       0.487  53.238  -8.394  1.00  0.00     0.092 C 
HETATM   19  O8  UNL     1       0.425  54.443  -7.582  1.00  0.00    -0.316 OA
HETATM   20  C28 UNL     1       1.905  52.534  -8.207  1.00  0.00     0.050 C 
HETATM   21  C29 UNL     1       2.456  52.544  -6.767  1.00  0.00     0.016 C 
HETATM   22  C30 UNL     1       2.993  53.143  -9.163  1.00  0.00     0.170 C 
ENDROOT
BRANCH   3  23
HETATM   23  C6  UNL     1       0.965  56.701  -7.130  1.00  0.00     0.074 C 
HETATM   24  C7  UNL     1       1.809  57.654  -6.699  1.00  0.00     0.004 C 
BRANCH  24  25
HETATM   25  C8  UNL     1       3.211  57.790  -7.020  1.00  0.00    -0.004 C 
HETATM   26  C9  UNL     1       4.187  57.447  -6.165  1.00  0.00    -0.027 C 
BRANCH  26  27
HETATM   27  C10 UNL     1       5.650  57.540  -6.490  1.00  0.00     0.027 C 
BRANCH  27  28
HETATM   28  C11 UNL     1       6.491  56.643  -5.576  1.00  0.00     0.004 C 
BRANCH  28  29
HETATM   29  C12 UNL     1       7.684  56.056  -6.334  1.00  0.00    -0.000 C 
BRANCH  29  30
HETATM   30  C13 UNL     1       8.903  55.794  -5.446  1.00  0.00    -0.005 C 
HETATM   31  C14 UNL     1       9.757  57.029  -5.206  1.00  0.00     0.005 C 
ENDBRANCH  29  30
ENDBRANCH  28  29
ENDBRANCH  27  28
ENDBRANCH  26  27
ENDBRANCH  24  25
ENDBRANCH   3  23
BRANCH   1  32
HETATM   32  C2  UNL     1       3.878  55.348 -10.130  1.00  0.00    -0.054 C 
HETATM   33  C1  UNL     1       5.172  55.200  -9.790  1.00  0.00     0.017 C 
HETATM   34  C3  UNL     1       3.529  56.293 -11.258  1.00  0.00     0.046 C 
ENDBRANCH   1  32
BRANCH  22  35
HETATM   35  O9  UNL     1       3.022  52.423 -10.412  1.00  0.00    -0.377 OA
BRANCH  35  36
HETATM   36  C31 UNL     1       3.229  51.015 -10.263  1.00  0.00     0.207 C 
BRANCH  36  37
HETATM   37  C32 UNL     1       4.666  50.701  -9.931  1.00  0.00    -0.035 A 
HETATM   38  C33 UNL     1       5.559  51.725  -9.587  1.00  0.00     0.009 A 
HETATM   39  C34 UNL     1       6.891  51.431  -9.285  1.00  0.00     0.001 A 
HETATM   40  C35 UNL     1       7.340  50.113  -9.318  1.00  0.00     0.000 A 
HETATM   41  C36 UNL     1       6.460  49.086  -9.653  1.00  0.00     0.001 A 
HETATM   42  C37 UNL     1       5.128  49.377  -9.956  1.00  0.00     0.009 A 
ENDBRANCH  36  37
ENDBRANCH  35  36
ENDBRANCH  22  35
BRANCH  11  43
HETATM   43  O6  UNL     1      -0.123  50.711  -9.700  1.00  0.00    -0.378 OA
HETATM   44  H29 UNL     1      -0.404  49.792  -9.898  1.00  0.00     0.211 HD
ENDBRANCH  11  43
BRANCH   9  45
HETATM   45  C19 UNL     1      -3.309  53.331 -11.511  1.00  0.00     0.207 C 
BRANCH  45  46
HETATM   46  O4  UNL     1      -4.598  52.884 -11.105  1.00  0.00    -0.398 OA
HETATM   47  H26 UNL     1      -4.557  51.908 -11.094  1.00  0.00     0.209 HD
ENDBRANCH  45  46
ENDBRANCH   9  45
BRANCH  10  48
HETATM   48  O5  UNL     1      -2.530  50.719 -10.816  1.00  0.00    -0.389 OA
HETATM   49  H28 UNL     1      -1.685  50.682 -11.301  1.00  0.00     0.210 HD
ENDBRANCH  10  48
TORSDOF 14
ENDMDL
