MODEL 1
REMARK minimizedAffinity -6.59878063
REMARK CNNscore 0.875968933
REMARK CNNaffinity 6.80356979
REMARK  13 active torsions:
REMARK  status: ('A' for Active; 'I' for Inactive)
REMARK    1  A    between atoms: C5_5  and  C6_6 
REMARK    2  A    between atoms: C6_6  and  C8_8 
REMARK    3  A    between atoms: C8_8  and  O1_9 
REMARK    4  A    between atoms: C13_15  and  O3_17 
REMARK    5  A    between atoms: C15_18  and  O4_19 
REMARK    6  A    between atoms: C18_22  and  O5_24 
REMARK    7  A    between atoms: O5_24  and  C20_25 
REMARK    8  A    between atoms: C20_25  and  C21_27 
REMARK    9  A    between atoms: C21_27  and  C22_28 
REMARK   10  A    between atoms: C21_27  and  O7_30 
REMARK   11  A    between atoms: O7_30  and  C24_31 
REMARK   12  A    between atoms: C24_31  and  C25_33 
REMARK   13  A    between atoms: C25_33  and  C26_34 
ROOT
HETATM    1  C1  UNL     1       6.583  54.918  -9.143  1.00  0.00     0.015 C 
HETATM    2  C2  UNL     1       5.311  54.774  -9.552  1.00  0.00    -0.082 C 
HETATM    3  C3  UNL     1       4.766  55.529 -10.730  1.00  0.00     0.034 C 
HETATM    4  C4  UNL     1       3.525  56.358 -10.372  1.00  0.00     0.010 C 
HETATM    5  C5  UNL     1       2.708  55.860  -9.148  1.00  0.00    -0.001 C 
HETATM    6  C9  UNL     1       2.845  54.323  -8.980  1.00  0.00     0.033 C 
HETATM    7  C10 UNL     1       2.320  53.476 -10.189  1.00  0.00     0.162 C 
HETATM    8  O2  UNL     1       3.425  52.625 -10.543  1.00  0.00    -0.376 OA
HETATM    9  C11 UNL     1       4.192  52.476  -9.344  1.00  0.00     0.133 C 
HETATM   10  C12 UNL     1       5.368  51.566  -9.588  1.00  0.00     0.072 C 
HETATM   11  C13 UNL     1       4.904  50.161 -10.093  1.00  0.00     0.082 C 
HETATM   12  C14 UNL     1       6.060  49.183  -9.807  1.00  0.00     0.049 C 
HETATM   13  C15 UNL     1       3.573  49.588  -9.466  1.00  0.00     0.152 C 
HETATM   14  C16 UNL     1       2.220  50.108 -10.045  1.00  0.00     0.038 C 
HETATM   15  C17 UNL     1       1.378  51.167  -9.277  1.00  0.00     0.043 C 
HETATM   16  C18 UNL     1       1.068  52.547  -9.977  1.00  0.00     0.093 C 
HETATM   17  C19 UNL     1       0.405  52.238 -11.343  1.00  0.00     0.049 C 
HETATM   18  C28 UNL     1       4.326  53.889  -8.815  1.00  0.00     0.050 C 
ENDROOT
BRANCH  16  19
HETATM   19  O5  UNL     1       0.074  53.157  -9.094  1.00  0.00    -0.306 OA
BRANCH  19  20
HETATM   20  C20 UNL     1      -1.256  52.900  -9.224  1.00  0.00     0.289 C 
HETATM   21  O6  UNL     1      -1.908  52.164  -8.493  1.00  0.00    -0.262 OA
BRANCH  20  22
HETATM   22  C21 UNL     1      -1.838  53.699 -10.399  1.00  0.00     0.231 C 
BRANCH  22  23
HETATM   23  C22 UNL     1      -1.446  55.183 -10.312  1.00  0.00     0.038 C 
HETATM   24  C23 UNL     1      -0.914  55.595  -8.943  1.00  0.00     0.008 C 
ENDBRANCH  22  23
BRANCH  22  25
HETATM   25  O7  UNL     1      -3.273  53.644 -10.440  1.00  0.00    -0.306 OA
BRANCH  25  26
HETATM   26  C24 UNL     1      -3.814  53.012 -11.514  1.00  0.00     0.259 C 
HETATM   27  O8  UNL     1      -4.335  53.563 -12.476  1.00  0.00    -0.265 OA
BRANCH  26  28
HETATM   28  C25 UNL     1      -3.704  51.518 -11.354  1.00  0.00     0.111 C 
BRANCH  28  29
HETATM   29  C26 UNL     1      -4.882  50.926 -10.588  1.00  0.00     0.005 C 
HETATM   30  C27 UNL     1      -4.475  49.754  -9.706  1.00  0.00     0.005 C 
ENDBRANCH  28  29
ENDBRANCH  26  28
ENDBRANCH  25  26
ENDBRANCH  22  25
ENDBRANCH  20  22
ENDBRANCH  19  20
ENDBRANCH  16  19
BRANCH   5  31
HETATM   31  C6  UNL     1       3.070  56.659  -7.844  1.00  0.00     0.010 C 
HETATM   32  C7  UNL     1       3.870  57.935  -8.169  1.00  0.00     0.012 C 
BRANCH  31  33
HETATM   33  C8  UNL     1       1.850  57.050  -6.987  1.00  0.00     0.168 C 
BRANCH  33  34
HETATM   34  O1  UNL     1       1.705  56.246  -5.825  1.00  0.00    -0.400 OA
HETATM   35  H14 UNL     1       1.768  55.302  -6.090  1.00  0.00     0.209 HD
ENDBRANCH  33  34
ENDBRANCH  31  33
ENDBRANCH   5  31
BRANCH  13  36
HETATM   36  O4  UNL     1       3.582  49.651  -8.041  1.00  0.00    -0.393 OA
HETATM   37  H25 UNL     1       4.058  48.867  -7.716  1.00  0.00     0.210 HD
ENDBRANCH  13  36
BRANCH  11  38
HETATM   38  O3  UNL     1       4.753  50.148 -11.521  1.00  0.00    -0.388 OA
HETATM   39  H23 UNL     1       5.260  50.889 -11.900  1.00  0.00     0.210 HD
ENDBRANCH  11  38
TORSDOF 13
ENDMDL
