MODEL 1
REMARK minimizedAffinity -10.1649475
REMARK  5 active torsions:
REMARK  status: ('A' for Active; 'I' for Inactive)
REMARK    1  A    between atoms: C2_2  and  C3_3 
REMARK    2  A    between atoms: C2_2  and  C9_12 
REMARK    3  A    between atoms: C3_3  and  C4_4 
REMARK    4  A    between atoms: C6_6  and  C7_7 
REMARK    5  A    between atoms: C7_7  and  O1_8 
ROOT
HETATM    1  C9  UNL     1      -0.423  51.269 -22.190  1.00  0.00    -0.002 C 
HETATM    2  C10 UNL     1      -0.518  51.850 -20.748  1.00  0.00     0.007 C 
HETATM    3  C11 UNL     1      -1.800  51.285 -20.106  1.00  0.00     0.015 C 
HETATM    4  C12 UNL     1      -2.248  50.153 -21.051  1.00  0.00    -0.013 C 
HETATM    5  C13 UNL     1      -1.420  48.894 -20.640  1.00  0.00     0.021 C 
HETATM    6  C14 UNL     1      -3.710  49.720 -21.019  1.00  0.00    -0.070 C 
HETATM    7  C15 UNL     1      -4.450  49.799 -19.904  1.00  0.00    -0.022 C 
HETATM    8  C16 UNL     1      -5.841  49.283 -19.776  1.00  0.00     0.034 C 
HETATM    9  C17 UNL     1      -6.526  48.715 -21.058  1.00  0.00     0.013 C 
HETATM   10  C18 UNL     1      -7.716  47.763 -20.635  1.00  0.00     0.018 C 
HETATM   11  C19 UNL     1      -8.727  47.490 -21.766  1.00  0.00     0.023 C 
HETATM   12  C20 UNL     1      -8.545  48.388 -19.481  1.00  0.00     0.023 C 
HETATM   13  C21 UNL     1      -7.123  46.423 -20.169  1.00  0.00     0.135 C 
HETATM   14  O4  UNL     1      -7.576  45.817 -19.197  1.00  0.00    -0.297 OA
HETATM   15  C22 UNL     1      -6.030  45.794 -21.015  1.00  0.00     0.080 C 
HETATM   16  C23 UNL     1      -4.928  46.776 -21.407  1.00  0.00     0.017 C 
HETATM   17  C24 UNL     1      -5.463  48.082 -22.043  1.00  0.00    -0.031 C 
HETATM   18  C25 UNL     1      -6.084  47.759 -23.425  1.00  0.00     0.016 C 
HETATM   19  C26 UNL     1      -4.308  49.150 -22.300  1.00  0.00     0.024 C 
HETATM   20  C27 UNL     1      -3.213  48.700 -23.308  1.00  0.00     0.010 C 
HETATM   21  C28 UNL     1      -2.027  49.670 -23.523  1.00  0.00     0.011 C 
HETATM   22  C29 UNL     1      -1.881  50.763 -22.448  1.00  0.00    -0.029 C 
HETATM   23  C30 UNL     1      -2.767  51.986 -22.842  1.00  0.00     0.016 C 
ENDROOT
BRANCH   1  24
HETATM   24  C2  UNL     1       0.240  52.265 -23.184  1.00  0.00    -0.011 C 
HETATM   25  C1  UNL     1       0.908  53.451 -22.482  1.00  0.00     0.010 C 
BRANCH  24  26
HETATM   26  C3  UNL     1      -0.745  52.758 -24.286  1.00  0.00     0.041 C 
BRANCH  26  27
HETATM   27  C4  UNL     1      -0.722  51.977 -25.608  1.00  0.00     0.156 A 
HETATM   28  C5  UNL     1       0.636  51.498 -25.954  1.00  0.00     0.021 A 
HETATM   29  C6  UNL     1       1.065  52.039 -27.094  1.00  0.00     0.039 A 
HETATM   30  C8  UNL     1      -0.010  52.913 -27.567  1.00  0.00     0.291 A 
HETATM   31  O2  UNL     1       0.026  53.587 -28.580  1.00  0.00    -0.260 OA
HETATM   32  O3  UNL     1      -1.055  52.841 -26.699  1.00  0.00    -0.308 OA
BRANCH  29  33
HETATM   33  C7  UNL     1       2.311  51.881 -27.868  1.00  0.00     0.208 C 
BRANCH  33  34
HETATM   34  O1  UNL     1       3.340  51.360 -27.033  1.00  0.00    -0.396 OA
HETATM   35  H11 UNL     1       4.116  51.222 -27.602  1.00  0.00     0.209 HD
ENDBRANCH  33  34
ENDBRANCH  29  33
ENDBRANCH  26  27
ENDBRANCH  24  26
ENDBRANCH   1  24
TORSDOF 5
ENDMDL
