MODEL 1
REMARK minimizedAffinity -5.80245399
REMARK CNNscore 0.652630687
REMARK CNNaffinity 6.18582106
REMARK  11 active torsions:
REMARK  status: ('A' for Active; 'I' for Inactive)
REMARK    1  A    between atoms: C4_4  and  C5_5 
REMARK    2  A    between atoms: C5_5  and  O2_7 
REMARK    3  A    between atoms: O2_7  and  C6_8 
REMARK    4  A    between atoms: C6_8  and  C7_9 
REMARK    5  A    between atoms: C17_19  and  O3_21 
REMARK    6  A    between atoms: C19_22  and  C20_23 
REMARK    7  A    between atoms: C20_23  and  C21_24 
REMARK    8  A    between atoms: C21_24  and  C22_25 
REMARK    9  A    between atoms: C22_25  and  C24_27 
REMARK   10  A    between atoms: C24_27  and  C25_28 
REMARK   11  A    between atoms: C25_28  and  O4_29 
ROOT
HETATM    1  C7  UNL     1      13.879  -5.760   7.496  1.00  0.00    -0.018 C 
HETATM    2  C8  UNL     1      14.969  -6.849   7.615  1.00  0.00     0.018 C 
HETATM    3  C9  UNL     1      12.504  -6.470   7.571  1.00  0.00     0.012 C 
HETATM    4  C10 UNL     1      11.408  -5.638   6.936  1.00  0.00     0.002 C 
HETATM    5  C11 UNL     1      11.618  -5.506   5.431  1.00  0.00     0.010 C 
HETATM    6  C12 UNL     1      13.097  -5.269   4.961  1.00  0.00    -0.033 C 
HETATM    7  C13 UNL     1      13.627  -6.599   4.360  1.00  0.00     0.016 C 
HETATM    8  C14 UNL     1      13.985  -4.860   6.192  1.00  0.00     0.004 C 
HETATM    9  C15 UNL     1      15.444  -4.572   5.779  1.00  0.00     0.009 C 
HETATM   10  C16 UNL     1      15.597  -3.859   4.435  1.00  0.00     0.038 C 
HETATM   11  C17 UNL     1      14.340  -3.108   3.996  1.00  0.00     0.059 C 
HETATM   12  C18 UNL     1      14.662  -2.265   2.751  1.00  0.00     0.046 C 
HETATM   13  C19 UNL     1      13.103  -4.082   3.853  1.00  0.00     0.028 C 
ENDROOT
BRANCH   1  14
HETATM   14  C6  UNL     1      14.043  -4.811   8.731  1.00  0.00     0.188 C 
BRANCH  14  15
HETATM   15  O2  UNL     1      15.141  -5.232   9.558  1.00  0.00    -0.317 OA
BRANCH  15  16
HETATM   16  C5  UNL     1      16.114  -4.297   9.707  1.00  0.00     0.283 C 
HETATM   17  O1  UNL     1      16.134  -3.192   9.195  1.00  0.00    -0.260 OA
BRANCH  16  18
HETATM   18  C4  UNL     1      17.130  -4.864  10.629  1.00  0.00     0.084 C 
HETATM   19  C2  UNL     1      18.170  -5.652  10.295  1.00  0.00    -0.082 C 
HETATM   20  C1  UNL     1      18.480  -6.170   8.917  1.00  0.00     0.043 C 
HETATM   21  C3  UNL     1      19.152  -6.092  11.350  1.00  0.00     0.043 C 
ENDBRANCH  16  18
ENDBRANCH  15  16
ENDBRANCH  14  15
ENDBRANCH   1  14
BRANCH  13  22
HETATM   22  C20 UNL     1      12.888  -4.554   2.379  1.00  0.00     0.009 C 
BRANCH  22  23
HETATM   23  C21 UNL     1      13.917  -5.535   1.789  1.00  0.00     0.005 C 
BRANCH  23  24
HETATM   24  C22 UNL     1      14.170  -5.457   0.262  1.00  0.00    -0.017 C 
HETATM   25  C23 UNL     1      14.966  -4.205  -0.121  1.00  0.00     0.010 C 
BRANCH  24  26
HETATM   26  C24 UNL     1      12.872  -5.589  -0.558  1.00  0.00     0.030 C 
BRANCH  26  27
HETATM   27  C25 UNL     1      12.824  -6.799  -1.489  1.00  0.00     0.164 C 
BRANCH  27  28
HETATM   28  O4  UNL     1      12.542  -7.993  -0.775  1.00  0.00    -0.401 OA
HETATM   29  H44 UNL     1      11.729  -7.846  -0.261  1.00  0.00     0.209 HD
ENDBRANCH  27  28
ENDBRANCH  26  27
ENDBRANCH  24  26
ENDBRANCH  23  24
ENDBRANCH  22  23
ENDBRANCH  13  22
BRANCH  11  30
HETATM   30  O3  UNL     1      14.009  -2.149   5.019  1.00  0.00    -0.390 OA
HETATM   31  H30 UNL     1      14.772  -1.560   5.143  1.00  0.00     0.210 HD
ENDBRANCH  11  30
TORSDOF 11
ENDMDL
