MODEL 1
REMARK minimizedAffinity -9.2736063
REMARK  9 active torsions:
REMARK  status: ('A' for Active; 'I' for Inactive)
REMARK    1  A    between atoms: C2_2  and  C4_4 
REMARK    2  A    between atoms: C4_4  and  O1_5 
REMARK    3  A    between atoms: C4_4  and  C5_7 
REMARK    4  A    between atoms: O1_5  and  O2_6 
REMARK    5  A    between atoms: C5_7  and  O3_8 
REMARK    6  A    between atoms: C5_7  and  C6_9 
REMARK    7  A    between atoms: C6_9  and  C7_10 
REMARK    8  A    between atoms: C7_10  and  C9_12 
REMARK    9  A    between atoms: C20_23  and  O4_24 
ROOT
HETATM    1  C9  UNL     1      -4.558   7.606  13.371  1.00  0.00    -0.002 C 
HETATM    2  C10 UNL     1      -4.400   9.012  14.026  1.00  0.00     0.006 C 
HETATM    3  C11 UNL     1      -2.903   9.236  14.312  1.00  0.00     0.011 C 
HETATM    4  C12 UNL     1      -2.185   8.138  13.516  1.00  0.00    -0.032 C 
HETATM    5  C13 UNL     1      -2.077   8.641  12.032  1.00  0.00     0.016 C 
HETATM    6  C14 UNL     1      -0.755   7.749  14.024  1.00  0.00     0.004 C 
HETATM    7  C15 UNL     1       0.187   8.979  14.088  1.00  0.00     0.006 C 
HETATM    8  C16 UNL     1       1.597   8.829  13.529  1.00  0.00     0.006 C 
HETATM    9  C17 UNL     1       1.598   8.111  12.176  1.00  0.00     0.001 C 
HETATM   10  C18 UNL     1       3.018   7.906  11.588  1.00  0.00     0.015 C 
HETATM   11  C19 UNL     1       3.899   9.159  11.626  1.00  0.00     0.013 C 
HETATM   12  C20 UNL     1       2.924   7.387  10.133  1.00  0.00     0.122 C 
HETATM   13  C21 UNL     1       1.584   6.732   9.795  1.00  0.00     0.033 C 
HETATM   14  C22 UNL     1       1.009   5.929  10.960  1.00  0.00     0.013 C 
HETATM   15  C23 UNL     1       0.929   6.732  12.256  1.00  0.00    -0.027 A 
HETATM   16  C24 UNL     1       1.113   5.951  13.541  1.00  0.00     0.021 A 
HETATM   17  C25 UNL     1      -0.253   6.522  13.222  1.00  0.00    -0.027 A 
HETATM   18  C26 UNL     1      -1.277   5.385  13.064  1.00  0.00     0.011 C 
HETATM   19  C27 UNL     1      -2.715   5.815  12.751  1.00  0.00     0.011 C 
HETATM   20  C28 UNL     1      -3.186   6.930  13.698  1.00  0.00    -0.032 C 
HETATM   21  C29 UNL     1      -3.245   6.368  15.153  1.00  0.00     0.016 C 
ENDROOT
BRANCH   1  22
HETATM   22  C7  UNL     1      -5.897   6.916  13.787  1.00  0.00    -0.011 C 
HETATM   23  C8  UNL     1      -6.374   7.366  15.170  1.00  0.00     0.010 C 
BRANCH  22  24
HETATM   24  C6  UNL     1      -5.735   5.371  13.751  1.00  0.00     0.039 C 
BRANCH  24  25
HETATM   25  C5  UNL     1      -6.998   4.534  13.448  1.00  0.00     0.154 C 
BRANCH  25  26
HETATM   26  C4  UNL     1      -6.691   3.039  13.128  1.00  0.00     0.216 C 
BRANCH  26  27
HETATM   27  C2  UNL     1      -5.937   2.726  11.833  1.00  0.00    -0.059 C 
HETATM   28  C1  UNL     1      -5.072   3.552  11.219  1.00  0.00     0.016 C 
HETATM   29  C3  UNL     1      -6.189   1.353  11.264  1.00  0.00     0.045 C 
ENDBRANCH  26  27
BRANCH  26  30
HETATM   30  O1  UNL     1      -7.936   2.314  13.116  1.00  0.00    -0.231 OA
BRANCH  30  31
HETATM   31  O2  UNL     1      -8.977   3.258  12.722  1.00  0.00    -0.250 OA
HETATM   32  H7  UNL     1      -9.556   3.095  13.490  1.00  0.00     0.253 HD
ENDBRANCH  30  31
ENDBRANCH  26  30
ENDBRANCH  25  26
BRANCH  25  33
HETATM   33  O3  UNL     1      -7.862   4.653  14.595  1.00  0.00    -0.393 OA
HETATM   34  H9  UNL     1      -7.955   5.596  14.802  1.00  0.00     0.210 HD
ENDBRANCH  25  33
ENDBRANCH  24  25
ENDBRANCH  22  24
ENDBRANCH   1  22
BRANCH  12  35
HETATM   35  O4  UNL     1       3.984   6.453   9.924  1.00  0.00    -0.395 OA
HETATM   36  H35 UNL     1       3.957   6.180   8.991  1.00  0.00     0.210 HD
ENDBRANCH  12  35
TORSDOF 9
ENDMDL
