MODEL 1
REMARK minimizedAffinity -8.71297455
REMARK  6 active torsions:
REMARK  status: ('A' for Active; 'I' for Inactive)
REMARK    1  A    between atoms: C4_4  and  C5_5 
REMARK    2  A    between atoms: C5_5  and  C6_6 
REMARK    3  A    between atoms: C6_6  and  C7_7 
REMARK    4  A    between atoms: C7_7  and  C9_9 
REMARK    5  A    between atoms: C12_12  and  C13_13 
REMARK    6  A    between atoms: C13_13  and  O2_15 
ROOT
HETATM    1  C9  UNL     1      -1.169   6.103  12.077  1.00  0.00    -0.001 C 
HETATM    2  C10 UNL     1      -1.746   7.198  13.017  1.00  0.00     0.007 C 
HETATM    3  C11 UNL     1      -0.593   8.175  13.320  1.00  0.00     0.026 C 
HETATM    4  C12 UNL     1       0.473   7.856  12.249  1.00  0.00     0.076 C 
HETATM    5  C14 UNL     1       1.915   8.305  12.460  1.00  0.00    -0.057 C 
HETATM    6  C15 UNL     1       2.937   7.597  11.915  1.00  0.00    -0.067 C 
HETATM    7  C16 UNL     1       2.690   6.294  11.144  1.00  0.00     0.036 C 
HETATM    8  C17 UNL     1       1.251   5.738  11.092  1.00  0.00     0.015 C 
HETATM    9  C18 UNL     1       0.372   6.281  12.225  1.00  0.00    -0.018 C 
HETATM   10  C19 UNL     1       0.881   5.628  13.547  1.00  0.00     0.017 C 
HETATM   11  C20 UNL     1       4.415   8.049  12.078  1.00  0.00    -0.015 C 
HETATM   12  C21 UNL     1       4.970   7.232  13.269  1.00  0.00     0.020 C 
HETATM   13  C22 UNL     1       5.251   7.744  10.809  1.00  0.00     0.021 C 
HETATM   14  C23 UNL     1       6.678   8.260  10.888  1.00  0.00     0.080 C 
HETATM   15  C24 UNL     1       6.715   9.746  11.140  1.00  0.00     0.135 C 
HETATM   16  O3  UNL     1       7.511  10.449  10.511  1.00  0.00    -0.297 OA
HETATM   17  C25 UNL     1       5.845  10.312  12.275  1.00  0.00     0.018 C 
HETATM   18  C26 UNL     1       6.638  10.203  13.584  1.00  0.00     0.023 C 
HETATM   19  C27 UNL     1       5.646  11.824  11.988  1.00  0.00     0.023 C 
HETATM   20  C28 UNL     1       4.445   9.609  12.281  1.00  0.00     0.013 C 
HETATM   21  C29 UNL     1       3.561   9.994  13.479  1.00  0.00     0.011 C 
HETATM   22  C30 UNL     1       2.108   9.586  13.238  1.00  0.00     0.036 C 
ENDROOT
BRANCH   1  23
HETATM   23  C7  UNL     1      -1.883   4.723  12.197  1.00  0.00    -0.014 C 
HETATM   24  C8  UNL     1      -1.591   3.714  11.082  1.00  0.00     0.010 C 
BRANCH  23  25
HETATM   25  C6  UNL     1      -3.406   4.903  12.418  1.00  0.00     0.008 C 
BRANCH  25  26
HETATM   26  C5  UNL     1      -4.303   3.972  11.588  1.00  0.00     0.028 C 
BRANCH  26  27
HETATM   27  C4  UNL     1      -5.626   3.657  12.226  1.00  0.00    -0.025 C 
HETATM   28  C2  UNL     1      -6.375   2.545  12.090  1.00  0.00    -0.091 C 
HETATM   29  C1  UNL     1      -6.037   1.368  11.217  1.00  0.00     0.042 C 
HETATM   30  C3  UNL     1      -7.671   2.397  12.844  1.00  0.00     0.042 C 
ENDBRANCH  26  27
ENDBRANCH  25  26
ENDBRANCH  23  25
ENDBRANCH   1  23
BRANCH   4  31
HETATM   31  C13 UNL     1       0.061   8.562  10.919  1.00  0.00     0.153 C 
HETATM   32  O1  UNL     1       0.665   8.579   9.859  1.00  0.00    -0.649 OA
BRANCH  31  33
HETATM   33  O2  UNL     1      -1.074   9.289  11.012  1.00  0.00    -0.776 OA
HETATM   34  H21 UNL     1      -1.152   9.700  10.124  1.00  0.00     0.167 HD
ENDBRANCH  31  33
ENDBRANCH   4  31
TORSDOF 6
ENDMDL
