MODEL 1
REMARK minimizedAffinity -9.52853012
REMARK  7 active torsions:
REMARK  status: ('A' for Active; 'I' for Inactive)
REMARK    1  A    between atoms: C2_2  and  C30_32 
REMARK    2  A    between atoms: C3_3  and  C4_4 
REMARK    3  A    between atoms: C4_4  and  C5_5 
REMARK    4  A    between atoms: C5_5  and  C6_6 
REMARK    5  A    between atoms: C6_6  and  C8_8 
REMARK    6  A    between atoms: C29_30  and  O2_31 
REMARK    7  A    between atoms: C30_32  and  O3_33 
ROOT
HETATM    1  C8  UNL     1      -0.644  50.115 -21.017  1.00  0.00    -0.002 C 
HETATM    2  C9  UNL     1      -0.967  49.486 -19.631  1.00  0.00     0.007 C 
HETATM    3  C10 UNL     1      -2.270  48.679 -19.776  1.00  0.00     0.015 C 
HETATM    4  C11 UNL     1      -2.481  48.535 -21.291  1.00  0.00    -0.010 C 
HETATM    5  C12 UNL     1      -1.585  47.349 -21.773  1.00  0.00     0.021 C 
HETATM    6  C13 UNL     1      -3.888  48.245 -21.822  1.00  0.00    -0.039 C 
HETATM    7  C14 UNL     1      -4.235  48.666 -23.069  1.00  0.00    -0.066 C 
HETATM    8  C15 UNL     1      -3.265  49.476 -23.937  1.00  0.00     0.036 C 
HETATM    9  C16 UNL     1      -1.921  49.904 -23.312  1.00  0.00     0.015 C 
HETATM   10  C17 UNL     1      -1.999  49.959 -21.781  1.00  0.00    -0.029 C 
HETATM   11  C18 UNL     1      -2.961  51.116 -21.367  1.00  0.00     0.016 C 
HETATM   12  C19 UNL     1      -5.657  48.424 -23.651  1.00  0.00    -0.015 C 
HETATM   13  C20 UNL     1      -6.432  49.740 -23.409  1.00  0.00     0.020 C 
HETATM   14  C21 UNL     1      -5.614  48.122 -25.169  1.00  0.00     0.021 C 
HETATM   15  C22 UNL     1      -6.983  47.806 -25.754  1.00  0.00     0.080 C 
HETATM   16  C23 UNL     1      -7.632  46.638 -25.056  1.00  0.00     0.135 C 
HETATM   17  O1  UNL     1      -8.231  45.791 -25.724  1.00  0.00    -0.297 OA
HETATM   18  C24 UNL     1      -7.648  46.626 -23.519  1.00  0.00     0.018 C 
HETATM   19  C25 UNL     1      -7.822  45.146 -23.077  1.00  0.00     0.023 C 
HETATM   20  C26 UNL     1      -8.897  47.384 -23.047  1.00  0.00     0.023 C 
HETATM   21  C27 UNL     1      -6.287  47.162 -22.956  1.00  0.00     0.016 C 
HETATM   22  C28 UNL     1      -6.271  47.357 -21.428  1.00  0.00     0.043 C 
HETATM   23  C29 UNL     1      -4.834  47.484 -20.912  1.00  0.00     0.148 C 
ENDROOT
BRANCH   1  24
HETATM   24  C6  UNL     1       0.020  51.516 -20.890  1.00  0.00    -0.014 C 
HETATM   25  C7  UNL     1      -0.347  52.236 -19.588  1.00  0.00     0.010 C 
BRANCH  24  26
HETATM   26  C5  UNL     1      -0.238  52.451 -22.108  1.00  0.00     0.008 C 
BRANCH  26  27
HETATM   27  C4  UNL     1       0.725  52.380 -23.303  1.00  0.00     0.028 C 
BRANCH  27  28
HETATM   28  C3  UNL     1       0.291  53.144 -24.520  1.00  0.00    -0.022 C 
HETATM   29  C2  UNL     1       0.535  52.836 -25.810  1.00  0.00    -0.064 C 
HETATM   30  C1  UNL     1       1.318  51.634 -26.265  1.00  0.00     0.045 C 
BRANCH  29  31
HETATM   31  C30 UNL     1       0.012  53.706 -26.921  1.00  0.00     0.197 C 
BRANCH  31  32
HETATM   32  O3  UNL     1       0.154  55.066 -26.539  1.00  0.00    -0.397 OA
HETATM   33  H48 UNL     1      -0.152  55.601 -27.289  1.00  0.00     0.209 HD
ENDBRANCH  31  32
ENDBRANCH  29  31
ENDBRANCH  27  28
ENDBRANCH  26  27
ENDBRANCH  24  26
ENDBRANCH   1  24
BRANCH  23  34
HETATM   34  O2  UNL     1      -4.333  46.161 -20.727  1.00  0.00    -0.391 OA
HETATM   35  H45 UNL     1      -3.955  45.878 -21.575  1.00  0.00     0.210 HD
ENDBRANCH  23  34
TORSDOF 7
ENDMDL
