MODEL 1
REMARK minimizedAffinity -6.04955816
REMARK  10 active torsions:
REMARK  status: ('A' for Active; 'I' for Inactive)
REMARK    1  A    between atoms: C2_2  and  C3_3 
REMARK    2  A    between atoms: C3_3  and  C4_4 
REMARK    3  A    between atoms: C4_4  and  C5_5 
REMARK    4  A    between atoms: C5_5  and  N1_6 
REMARK    5  A    between atoms: N1_6  and  C6_7 
REMARK    6  A    between atoms: C6_7  and  C7_8 
REMARK    7  A    between atoms: C7_8  and  O1_9 
REMARK    8  A    between atoms: O1_9  and  C8_10 
REMARK    9  A    between atoms: C8_10  and  C9_12 
REMARK   10  A    between atoms: C12_15  and  N2_16 
ROOT
HETATM    1  C8  UNL     1      -2.980   2.892  11.429  1.00  0.00     0.293 C 
HETATM    2  O2  UNL     1      -2.397   1.828  11.299  1.00  0.00    -0.259 OA
ENDROOT
BRANCH   1   3
HETATM    3  O1  UNL     1      -2.452   4.120  11.200  1.00  0.00    -0.316 OA
BRANCH   3   4
HETATM    4  C7  UNL     1      -1.153   4.352  11.775  1.00  0.00     0.209 C 
BRANCH   4   5
HETATM    5  C6  UNL     1      -0.473   5.566  11.122  1.00  0.00     0.296 C 
BRANCH   5   6
HETATM    6  N1  UNL     1       0.989   5.453  11.013  1.00  0.00     0.085 N 
HETATM    7  H12 UNL     1       1.395   5.564  11.944  1.00  0.00     0.315 HD
BRANCH   6   8
HETATM    8  C5  UNL     1       1.568   6.443  10.106  1.00  0.00     0.269 C 
BRANCH   8   9
HETATM    9  C4  UNL     1       0.590   7.596   9.855  1.00  0.00     0.030 C 
BRANCH   9  10
HETATM   10  C3  UNL     1       0.682   8.167   8.437  1.00  0.00     0.001 C 
BRANCH  10  11
HETATM   11  C2  UNL     1       2.015   7.808   7.781  1.00  0.00    -0.005 C 
HETATM   12  C1  UNL     1       1.810   7.188   6.407  1.00  0.00     0.005 C 
ENDBRANCH  10  11
ENDBRANCH   9  10
ENDBRANCH   8   9
ENDBRANCH   6   8
ENDBRANCH   5   6
ENDBRANCH   4   5
ENDBRANCH   3   4
ENDBRANCH   1   3
BRANCH   1  13
HETATM   13  C9  UNL     1      -4.394   3.007  11.880  1.00  0.00     0.039 A 
HETATM   14  C10 UNL     1      -5.301   2.024  11.469  1.00  0.00     0.019 A 
HETATM   15  C11 UNL     1      -6.640   2.087  11.871  1.00  0.00     0.024 A 
HETATM   16  C12 UNL     1      -7.102   3.151  12.649  1.00  0.00     0.005 A 
HETATM   17  C13 UNL     1      -6.181   4.098  13.103  1.00  0.00     0.024 A 
HETATM   18  C14 UNL     1      -4.840   4.044  12.708  1.00  0.00     0.019 A 
BRANCH  16  19
HETATM   19  N2  UNL     1      -8.409   3.146  13.145  1.00  0.00    -0.303 NA
HETATM   20  H19 UNL     1      -9.071   2.644  12.560  1.00  0.00     0.124 HD
HETATM   21  H20 UNL     1      -8.754   4.060  13.419  1.00  0.00     0.124 HD
ENDBRANCH  16  19
ENDBRANCH   1  13
TORSDOF 10
ENDMDL
