MODEL 1
REMARK minimizedAffinity -8.03732872
REMARK  6 active torsions:
REMARK  status: ('A' for Active; 'I' for Inactive)
REMARK    1  A    between atoms: C9_10  and  C10_11 
REMARK    2  A    between atoms: C11_13  and  O3_14 
REMARK    3  A    between atoms: C12_15  and  C13_16 
REMARK    4  A    between atoms: C14_18  and  O5_19 
REMARK    5  A    between atoms: C16_21  and  C17_22 
REMARK    6  A    between atoms: C17_22  and  C18_23 
ROOT
HETATM    1  C1  UNL     1      -4.814   7.903  13.881  1.00  0.00     0.043 C 
HETATM    2  C2  UNL     1      -3.308   8.046  13.945  1.00  0.00    -0.087 C 
HETATM    3  C3  UNL     1      -2.740   9.212  13.570  1.00  0.00    -0.024 C 
HETATM    4  C4  UNL     1      -1.317   9.718  13.511  1.00  0.00     0.030 C 
HETATM    5  C5  UNL     1      -0.270   9.095  14.430  1.00  0.00     0.042 C 
HETATM    6  C6  UNL     1       0.788   8.117  13.816  1.00  0.00     0.069 C 
HETATM    7  C7  UNL     1       1.237   7.206  14.996  1.00  0.00     0.047 C 
HETATM    8  O1  UNL     1       1.939   9.004  13.560  1.00  0.00    -0.338 OA
HETATM    9  C8  UNL     1       2.992   8.361  12.960  1.00  0.00     0.095 A 
HETATM   10  C9  UNL     1       4.280   8.477  13.487  1.00  0.00     0.070 A 
HETATM   11  C11 UNL     1       5.324   7.739  12.917  1.00  0.00     0.097 A 
HETATM   12  C12 UNL     1       5.061   6.896  11.831  1.00  0.00     0.069 A 
HETATM   13  C14 UNL     1       3.760   6.820  11.289  1.00  0.00     0.091 A 
HETATM   14  C15 UNL     1       2.723   7.596  11.817  1.00  0.00     0.015 A 
HETATM   15  C16 UNL     1       1.299   7.745  11.318  1.00  0.00     0.032 C 
HETATM   16  C21 UNL     1       0.333   7.325  12.477  1.00  0.00     0.034 C 
HETATM   17  C22 UNL     1       0.263   5.816  12.695  1.00  0.00     0.006 A 
HETATM   18  C23 UNL     1      -1.023   5.176  13.222  1.00  0.00    -0.001 A 
HETATM   19  C24 UNL     1      -2.388   5.822  13.229  1.00  0.00     0.010 C 
HETATM   20  C25 UNL     1      -2.609   6.779  14.398  1.00  0.00     0.034 C 
HETATM   21  C26 UNL     1      -0.447   4.711  11.892  1.00  0.00    -0.039 A 
HETATM   22  C27 UNL     1       0.223   3.352  11.883  1.00  0.00     0.015 C 
HETATM   23  C28 UNL     1      -1.233   4.957  10.629  1.00  0.00     0.015 C 
ENDROOT
BRANCH  15  24
HETATM   24  C17 UNL     1       0.934   7.220   9.919  1.00  0.00     0.014 C 
BRANCH  24  25
HETATM   25  C18 UNL     1       0.756   8.301   8.824  1.00  0.00    -0.022 C 
HETATM   26  C19 UNL     1      -0.677   8.839   8.763  1.00  0.00     0.009 C 
HETATM   27  C20 UNL     1       1.139   7.714   7.463  1.00  0.00     0.009 C 
ENDBRANCH  24  25
ENDBRANCH  15  24
BRANCH  13  28
HETATM   28  O5  UNL     1       3.481   5.969  10.254  1.00  0.00    -0.359 OA
HETATM   29  H15 UNL     1       4.308   5.507   9.983  1.00  0.00     0.217 HD
ENDBRANCH  13  28
BRANCH  10  30
HETATM   30  C10 UNL     1       4.513   9.350  14.652  1.00  0.00     0.275 C 
HETATM   31  O2  UNL     1       5.226   8.969  15.577  1.00  0.00    -0.301 OA
ENDBRANCH  10  30
BRANCH  12  32
HETATM   32  C13 UNL     1       6.163   6.091  11.263  1.00  0.00     0.275 C 
HETATM   33  O4  UNL     1       7.074   6.631  10.638  1.00  0.00    -0.301 OA
ENDBRANCH  12  32
BRANCH  11  34
HETATM   34  O3  UNL     1       6.604   7.803  13.409  1.00  0.00    -0.359 OA
HETATM   35  H13 UNL     1       6.620   8.429  14.172  1.00  0.00     0.217 HD
ENDBRANCH  11  34
TORSDOF 6
ENDMDL
