MODEL 1
REMARK minimizedAffinity -7.2815361
REMARK CNNscore 0.66681993
REMARK CNNaffinity 6.54806662
REMARK  5 active torsions:
REMARK  status: ('A' for Active; 'I' for Inactive)
REMARK    1  A    between atoms: C2_2  and  C4_4 
REMARK    2  A    between atoms: C10_11  and  O2_12 
REMARK    3  A    between atoms: C13_15  and  O3_16 
REMARK    4  A    between atoms: C32_37  and  O5_38 
REMARK    5  A    between atoms: C37_44  and  O7_45 
ROOT
HETATM    1  C4  UNL     1      -3.289  17.784   8.062  1.00  0.00     0.181 C 
HETATM    2  O1  UNL     1      -3.272  16.924   6.914  1.00  0.00    -0.370 OA
HETATM    3  C5  UNL     1      -2.024  16.228   6.694  1.00  0.00     0.163 C 
HETATM    4  C6  UNL     1      -2.150  15.683   5.263  1.00  0.00     0.036 C 
HETATM    5  C7  UNL     1      -0.839  15.271   4.593  1.00  0.00     0.016 C 
HETATM    6  C8  UNL     1       0.293  16.336   4.731  1.00  0.00     0.006 C 
HETATM    7  C9  UNL     1      -0.216  17.649   4.059  1.00  0.00     0.020 C 
HETATM    8  C10 UNL     1       0.515  16.577   6.286  1.00  0.00     0.102 C 
HETATM    9  C11 UNL     1       1.786  17.416   6.620  1.00  0.00     0.045 C 
HETATM   10  C12 UNL     1       3.088  16.927   5.924  1.00  0.00     0.045 C 
HETATM   11  C13 UNL     1       2.846  16.857   4.427  1.00  0.00     0.102 C 
HETATM   12  C14 UNL     1       4.026  16.459   3.411  1.00  0.00     0.194 C 
HETATM   13  O4  UNL     1       4.784  17.659   3.193  1.00  0.00    -0.367 OA
HETATM   14  C15 UNL     1       6.131  17.566   2.700  1.00  0.00     0.061 C 
HETATM   15  C16 UNL     1       6.669  19.006   2.873  1.00  0.00     0.046 C 
HETATM   16  C17 UNL     1       7.011  16.654   3.558  1.00  0.00     0.046 C 
HETATM   17  C18 UNL     1       6.147  17.268   1.188  1.00  0.00     0.060 C 
HETATM   18  C19 UNL     1       7.499  17.207   0.434  1.00  0.00     0.023 C 
HETATM   19  C20 UNL     1       6.934  16.115  -0.501  1.00  0.00     0.054 C 
HETATM   20  C21 UNL     1       6.415  16.471  -1.867  1.00  0.00    -0.078 C 
HETATM   21  C22 UNL     1       7.026  17.408  -2.610  1.00  0.00     0.015 C 
HETATM   22  C23 UNL     1       5.231  15.663  -2.377  1.00  0.00     0.073 C 
HETATM   23  C24 UNL     1       4.072  15.618  -1.405  1.00  0.00    -0.044 A 
HETATM   24  C25 UNL     1       2.763  15.397  -1.845  1.00  0.00     0.010 A 
HETATM   25  C26 UNL     1       1.694  15.334  -0.943  1.00  0.00     0.031 A 
HETATM   26  C27 UNL     1       1.970  15.545   0.413  1.00  0.00     0.044 A 
HETATM   27  N1  UNL     1       1.120  15.530   1.513  1.00  0.00    -0.358 N 
HETATM   28  C28 UNL     1       1.857  15.811   2.613  1.00  0.00     0.032 A 
HETATM   29  C29 UNL     1       3.162  16.059   2.246  1.00  0.00     0.010 A 
HETATM   30  C30 UNL     1       3.272  15.803   0.874  1.00  0.00     0.011 A 
HETATM   31  C31 UNL     1       4.347  15.757  -0.030  1.00  0.00    -0.003 A 
HETATM   32  C32 UNL     1       5.796  15.863   0.575  1.00  0.00     0.100 C 
HETATM   33  C33 UNL     1       1.650  15.829   4.101  1.00  0.00     0.043 C 
HETATM   34  C34 UNL     1       2.034  14.370   4.544  1.00  0.00     0.026 C 
HETATM   35  C35 UNL     1      -0.785  17.097   6.916  1.00  0.00     0.147 A 
HETATM   36  O6  UNL     1      -0.560  17.384   8.333  1.00  0.00    -0.360 OA
HETATM   37  C36 UNL     1      -0.956  18.478   7.511  1.00  0.00     0.194 A 
HETATM   38  C37 UNL     1      -2.339  18.980   7.770  1.00  0.00     0.183 C 
HETATM   39  H38 UNL     1       0.131  15.323   1.480  1.00  0.00     0.166 HD
ENDROOT
BRANCH   1  40
HETATM   40  C2  UNL     1      -4.723  18.219   8.354  1.00  0.00    -0.062 C 
HETATM   41  C1  UNL     1      -5.718  18.204   7.447  1.00  0.00     0.016 C 
HETATM   42  C3  UNL     1      -4.998  18.654   9.768  1.00  0.00     0.045 C 
ENDBRANCH   1  40
BRANCH  38  43
HETATM   43  O7  UNL     1      -2.736  19.720   6.613  1.00  0.00    -0.390 OA
HETATM   44  H45 UNL     1      -3.639  19.429   6.382  1.00  0.00     0.210 HD
ENDBRANCH  38  43
BRANCH   8  45
HETATM   45  O2  UNL     1       0.742  15.315   6.946  1.00  0.00    -0.386 OA
HETATM   46  H15 UNL     1       0.718  15.500   7.905  1.00  0.00     0.210 HD
ENDBRANCH   8  45
BRANCH  11  47
HETATM   47  O3  UNL     1       2.487  18.228   4.072  1.00  0.00    -0.386 OA
HETATM   48  H20 UNL     1       3.261  18.577   3.580  1.00  0.00     0.210 HD
ENDBRANCH  11  47
BRANCH  32  49
HETATM   49  O5  UNL     1       6.100  14.717   1.416  1.00  0.00    -0.384 OA
HETATM   50  H39 UNL     1       5.746  13.956   0.920  1.00  0.00     0.211 HD
ENDBRANCH  32  49
TORSDOF 5
ENDMDL
