MODEL 1
REMARK minimizedAffinity -9.29746723
REMARK  6 active torsions:
REMARK  status: ('A' for Active; 'I' for Inactive)
REMARK    1  A    between atoms: C12_13  and  C13_14 
REMARK    2  A    between atoms: C13_14  and  C15_16 
REMARK    3  A    between atoms: C15_16  and  C16_17 
REMARK    4  A    between atoms: C16_17  and  C17_18 
REMARK    5  A    between atoms: C18_19  and  C20_21 
REMARK    6  A    between atoms: C20_21  and  O3_23 
ROOT
HETATM    1  C1  UNL     1      -6.874   4.086  12.101  1.00  0.00     0.052 C 
HETATM    2  C2  UNL     1      -6.104   4.924  13.082  1.00  0.00    -0.013 C 
HETATM    3  C3  UNL     1      -4.802   4.769  13.412  1.00  0.00    -0.066 C 
HETATM    4  C4  UNL     1      -3.880   3.748  12.790  1.00  0.00     0.036 C 
HETATM    5  C5  UNL     1      -2.766   4.470  12.021  1.00  0.00     0.010 C 
HETATM    6  C6  UNL     1      -2.008   5.483  12.915  1.00  0.00     0.007 C 
HETATM    7  C7  UNL     1      -3.027   6.468  13.575  1.00  0.00     0.068 C 
HETATM    8  C8  UNL     1      -2.286   7.518  14.381  1.00  0.00     0.133 C 
HETATM    9  O1  UNL     1      -2.862   8.503  14.846  1.00  0.00    -0.298 OA
HETATM   10  C9  UNL     1      -0.813   7.315  14.597  1.00  0.00     0.089 C 
HETATM   11  C10 UNL     1       0.004   7.095  13.283  1.00  0.00    -0.026 C 
HETATM   12  C11 UNL     1       1.292   6.396  13.775  1.00  0.00     0.016 C 
HETATM   13  C12 UNL     1       0.233   8.492  12.560  1.00  0.00    -0.002 C 
HETATM   14  C21 UNL     1      -1.038   8.628  11.711  1.00  0.00     0.006 C 
HETATM   15  C22 UNL     1      -1.279   7.244  11.140  1.00  0.00     0.011 C 
HETATM   16  C23 UNL     1      -0.808   6.223  12.214  1.00  0.00    -0.032 C 
HETATM   17  C24 UNL     1       0.080   5.184  11.486  1.00  0.00     0.016 C 
HETATM   18  C25 UNL     1      -4.059   5.663  14.403  1.00  0.00     0.027 C 
HETATM   19  C26 UNL     1      -5.044   6.455  15.271  1.00  0.00     0.018 C 
HETATM   20  C27 UNL     1      -6.121   7.123  14.445  1.00  0.00     0.084 C 
HETATM   21  C28 UNL     1      -6.878   6.076  13.665  1.00  0.00     0.155 C 
HETATM   22  O4  UNL     1      -8.086   6.187  13.459  1.00  0.00    -0.293 OA
ENDROOT
BRANCH  13  23
HETATM   23  C13 UNL     1       1.584   8.644  11.765  1.00  0.00    -0.014 C 
HETATM   24  C14 UNL     1       1.299   8.525  10.257  1.00  0.00     0.010 C 
BRANCH  23  25
HETATM   25  C15 UNL     1       2.689   7.637  12.180  1.00  0.00     0.008 C 
BRANCH  25  26
HETATM   26  C16 UNL     1       3.835   7.438  11.168  1.00  0.00     0.028 C 
BRANCH  26  27
HETATM   27  C17 UNL     1       4.007   6.013  10.715  1.00  0.00    -0.013 C 
HETATM   28  C18 UNL     1       3.565   5.455   9.569  1.00  0.00     0.008 C 
HETATM   29  C19 UNL     1       2.827   6.165   8.475  1.00  0.00     0.055 C 
BRANCH  28  30
HETATM   30  C20 UNL     1       3.857   4.009   9.381  1.00  0.00     0.171 C 
HETATM   31  O2  UNL     1       4.822   3.525   8.814  1.00  0.00    -0.646 OA
BRANCH  30  32
HETATM   32  O3  UNL     1       2.915   3.223   9.929  1.00  0.00    -0.773 OA
HETATM   33  H28 UNL     1       3.234   2.318   9.726  1.00  0.00     0.167 HD
ENDBRANCH  30  32
ENDBRANCH  28  30
ENDBRANCH  26  27
ENDBRANCH  25  26
ENDBRANCH  23  25
ENDBRANCH  13  23
TORSDOF 6
ENDMDL
