MODEL 1
REMARK minimizedAffinity -7.43214703
REMARK CNNscore 0.846496165
REMARK CNNaffinity 6.70414591
REMARK  7 active torsions:
REMARK  status: ('A' for Active; 'I' for Inactive)
REMARK    1  A    between atoms: C2_2  and  C3_3 
REMARK    2  A    between atoms: C4_5  and  C5_6 
REMARK    3  A    between atoms: C5_6  and  C6_7 
REMARK    4  A    between atoms: C6_7  and  C7_8 
REMARK    5  A    between atoms: C7_8  and  C9_10 
REMARK    6  A    between atoms: C11_12  and  O2_13 
REMARK    7  A    between atoms: C30_33  and  O4_34 
ROOT
HETATM    1  C9  UNL     1     -13.388  46.228 -27.532  1.00  0.00     0.001 C 
HETATM    2  C10 UNL     1     -12.950  47.318 -26.506  1.00  0.00     0.038 C 
HETATM    3  C11 UNL     1     -11.521  47.748 -26.881  1.00  0.00     0.132 C 
HETATM    4  C12 UNL     1     -11.350  47.279 -28.344  1.00  0.00     0.016 C 
HETATM    5  C13 UNL     1     -12.067  48.301 -29.292  1.00  0.00     0.023 C 
HETATM    6  C14 UNL     1      -9.937  47.121 -28.906  1.00  0.00    -0.037 C 
HETATM    7  C15 UNL     1      -9.728  46.264 -29.941  1.00  0.00    -0.065 C 
HETATM    8  C16 UNL     1     -10.850  45.349 -30.458  1.00  0.00     0.036 C 
HETATM    9  C17 UNL     1     -12.195  45.344 -29.696  1.00  0.00     0.015 C 
HETATM   10  C18 UNL     1     -12.052  45.871 -28.263  1.00  0.00    -0.026 C 
HETATM   11  C19 UNL     1     -11.250  44.829 -27.423  1.00  0.00     0.016 C 
HETATM   12  C20 UNL     1      -8.350  46.147 -30.649  1.00  0.00    -0.015 C 
HETATM   13  C21 UNL     1      -7.736  44.792 -30.220  1.00  0.00     0.020 C 
HETATM   14  C22 UNL     1      -8.537  46.152 -32.196  1.00  0.00     0.021 C 
HETATM   15  C23 UNL     1      -7.359  46.689 -33.005  1.00  0.00     0.080 C 
HETATM   16  C24 UNL     1      -6.056  46.593 -32.254  1.00  0.00     0.135 C 
HETATM   17  O3  UNL     1      -5.092  46.004 -32.743  1.00  0.00    -0.297 OA
HETATM   18  C25 UNL     1      -5.989  47.319 -30.905  1.00  0.00     0.018 C 
HETATM   19  C26 UNL     1      -5.497  48.751 -31.197  1.00  0.00     0.023 C 
HETATM   20  C27 UNL     1      -4.933  46.651 -30.003  1.00  0.00     0.023 C 
HETATM   21  C28 UNL     1      -7.428  47.369 -30.283  1.00  0.00     0.016 C 
HETATM   22  C29 UNL     1      -7.435  47.625 -28.770  1.00  0.00     0.043 C 
HETATM   23  C30 UNL     1      -8.842  47.951 -28.275  1.00  0.00     0.148 C 
ENDROOT
BRANCH   1  24
HETATM   24  C7  UNL     1     -14.229  45.101 -26.870  1.00  0.00    -0.013 C 
HETATM   25  C8  UNL     1     -15.123  44.355 -27.866  1.00  0.00     0.010 C 
BRANCH  24  26
HETATM   26  C6  UNL     1     -15.090  45.613 -25.682  1.00  0.00     0.008 C 
BRANCH  26  27
HETATM   27  C5  UNL     1     -16.436  44.905 -25.504  1.00  0.00     0.028 C 
BRANCH  27  28
HETATM   28  C4  UNL     1     -16.980  45.100 -24.112  1.00  0.00    -0.017 C 
HETATM   29  C2  UNL     1     -18.057  45.816 -23.739  1.00  0.00    -0.028 C 
HETATM   30  C1  UNL     1     -18.466  45.966 -22.304  1.00  0.00     0.051 C 
BRANCH  29  31
HETATM   31  C3  UNL     1     -18.962  46.494 -24.714  1.00  0.00     0.265 C 
HETATM   32  O1  UNL     1     -19.037  47.707 -24.858  1.00  0.00    -0.302 OA
ENDBRANCH  29  31
ENDBRANCH  27  28
ENDBRANCH  26  27
ENDBRANCH  24  26
ENDBRANCH   1  24
BRANCH   3  33
HETATM   33  O2  UNL     1     -11.326  49.148 -26.720  1.00  0.00    -0.394 OA
HETATM   34  H18 UNL     1     -11.629  49.380 -25.824  1.00  0.00     0.210 HD
ENDBRANCH   3  33
BRANCH  23  35
HETATM   35  O4  UNL     1      -9.100  49.326 -28.533  1.00  0.00    -0.391 OA
HETATM   36  H46 UNL     1      -9.841  49.574 -27.939  1.00  0.00     0.210 HD
ENDBRANCH  23  35
TORSDOF 7
ENDMDL
