MODEL 1
REMARK minimizedAffinity -7.41530561
REMARK CNNscore 0.69488728
REMARK CNNaffinity 6.90141249
REMARK  6 active torsions:
REMARK  status: ('A' for Active; 'I' for Inactive)
REMARK    1  A    between atoms: O1_2  and  C2_3 
REMARK    2  A    between atoms: C17_20  and  C18_21 
REMARK    3  A    between atoms: C22_27  and  O6_28 
REMARK    4  A    between atoms: O6_28  and  C23_29 
REMARK    5  A    between atoms: C26_33  and  O8_34 
REMARK    6  A    between atoms: C31_40  and  O10_41 
ROOT
HETATM    1  C2  UNL     1       3.682  47.636 -10.274  1.00  0.00     0.190 C 
HETATM    2  C3  UNL     1       4.929  47.626  -9.380  1.00  0.00     0.064 C 
HETATM    3  C4  UNL     1       5.712  48.925  -9.452  1.00  0.00     0.174 C 
HETATM    4  O2  UNL     1       5.601  49.469 -10.757  1.00  0.00    -0.356 OA
HETATM    5  C5  UNL     1       4.293  50.011 -10.984  1.00  0.00     0.325 C 
HETATM    6  O3  UNL     1       4.166  50.318 -12.377  1.00  0.00    -0.344 OA
HETATM    7  C6  UNL     1       2.944  51.024 -12.592  1.00  0.00     0.177 C 
HETATM    8  C7  UNL     1       2.900  51.434 -14.035  1.00  0.00     0.011 C 
HETATM    9  C8  UNL     1       1.777  51.491 -14.775  1.00  0.00    -0.072 C 
HETATM   10  C9  UNL     1       1.802  52.164 -16.128  1.00  0.00     0.035 C 
HETATM   11  C10 UNL     1       0.858  51.560 -17.171  1.00  0.00     0.012 C 
HETATM   12  C11 UNL     1      -0.563  51.396 -16.599  1.00  0.00     0.026 C 
HETATM   13  C12 UNL     1      -0.499  50.460 -15.362  1.00  0.00     0.005 C 
HETATM   14  C13 UNL     1      -0.149  49.016 -15.813  1.00  0.00     0.007 C 
HETATM   15  C14 UNL     1      -0.620  48.635 -17.218  1.00  0.00     0.013 C 
HETATM   16  C15 UNL     1      -1.899  49.368 -17.686  1.00  0.00    -0.003 C 
HETATM   17  C16 UNL     1      -3.073  48.801 -16.852  1.00  0.00     0.019 C 
HETATM   18  C17 UNL     1      -2.089  49.099 -19.224  1.00  0.00     0.058 C 
HETATM   19  C22 UNL     1      -1.251  50.225 -19.872  1.00  0.00     0.143 C 
HETATM   20  C25 UNL     1      -1.568  51.451 -19.023  1.00  0.00     0.072 C 
HETATM   21  C26 UNL     1      -1.697  50.931 -17.577  1.00  0.00     0.072 C 
HETATM   22  C27 UNL     1       0.441  51.016 -14.220  1.00  0.00    -0.014 C 
HETATM   23  C28 UNL     1      -0.250  52.218 -13.528  1.00  0.00     0.020 C 
HETATM   24  C29 UNL     1       0.692  49.911 -13.152  1.00  0.00     0.049 C 
HETATM   25  C30 UNL     1       1.713  50.248 -12.060  1.00  0.00     0.159 C 
HETATM   26  O9  UNL     1       2.058  48.988 -11.456  1.00  0.00    -0.341 OA
HETATM   27  C31 UNL     1       3.129  49.068 -10.510  1.00  0.00     0.240 C 
ENDROOT
BRANCH  18  28
HETATM   28  C18 UNL     1      -3.509  49.001 -19.738  1.00  0.00    -0.043 A 
HETATM   29  C19 UNL     1      -4.400  49.996 -19.719  1.00  0.00     0.087 A 
HETATM   30  C20 UNL     1      -5.639  49.487 -20.298  1.00  0.00     0.283 A 
HETATM   31  O4  UNL     1      -6.661  50.133 -20.437  1.00  0.00    -0.260 OA
HETATM   32  O5  UNL     1      -5.466  48.187 -20.643  1.00  0.00    -0.314 OA
HETATM   33  C21 UNL     1      -4.135  47.786 -20.315  1.00  0.00     0.214 A 
ENDBRANCH  18  28
BRANCH  19  34
HETATM   34  O6  UNL     1      -1.578  50.477 -21.242  1.00  0.00    -0.316 OA
BRANCH  34  35
HETATM   35  C23 UNL     1      -0.774  51.376 -21.873  1.00  0.00     0.255 C 
HETATM   36  C24 UNL     1      -1.570  52.175 -22.859  1.00  0.00     0.126 C 
HETATM   37  O7  UNL     1       0.421  51.523 -21.665  1.00  0.00    -0.266 OA
ENDBRANCH  34  35
ENDBRANCH  19  34
BRANCH  21  38
HETATM   38  O8  UNL     1      -2.921  51.499 -17.069  1.00  0.00    -0.389 OA
HETATM   39  H35 UNL     1      -2.826  52.470 -17.041  1.00  0.00     0.210 HD
ENDBRANCH  21  38
BRANCH  27  40
HETATM   40  O10 UNL     1       2.576  49.545  -9.274  1.00  0.00    -0.360 OA
HETATM   41  H42 UNL     1       2.202  48.737  -8.869  1.00  0.00     0.213 HD
ENDBRANCH  27  40
BRANCH   1  42
HETATM   42  O1  UNL     1       2.652  46.857  -9.618  1.00  0.00    -0.385 OA
HETATM   43  C1  UNL     1       3.165  46.084  -8.537  1.00  0.00     0.202 C 
ENDBRANCH   1  42
TORSDOF 6
ENDMDL
