MODEL 1
REMARK minimizedAffinity -7.10235357
REMARK CNNscore 0.724635482
REMARK CNNaffinity 7.15498352
REMARK  9 active torsions:
REMARK  status: ('A' for Active; 'I' for Inactive)
REMARK       I    between atoms: C2_2  and  N1_4 
REMARK    1  A    between atoms: N1_4  and  C3_5 
REMARK    2  A    between atoms: C3_5  and  C4_6 
REMARK    3  A    between atoms: C3_5  and  C33_42 
REMARK    4  A    between atoms: C4_6  and  S1_7 
REMARK    5  A    between atoms: S1_7  and  C5_8 
REMARK    6  A    between atoms: C10_14  and  O3_15 
REMARK    7  A    between atoms: C27_33  and  O5_34 
REMARK    8  A    between atoms: C30_38  and  O7_39 
REMARK    9  A    between atoms: C33_42  and  O9_44 
ROOT
HETATM    1  C5  UNL     1       1.962  50.608  -9.267  1.00  0.00     0.054 C 
HETATM    2  C6  UNL     1       0.708  50.345  -8.821  1.00  0.00     0.028 C 
HETATM    3  C7  UNL     1       0.894  49.464  -7.688  1.00  0.00     0.089 C 
HETATM    4  C8  UNL     1      -0.113  48.886  -7.033  1.00  0.00     0.095 C 
HETATM    5  C9  UNL     1      -1.472  49.205  -7.491  1.00  0.00     0.208 C 
HETATM    6  O2  UNL     1      -2.455  48.667  -6.973  1.00  0.00    -0.285 OA
HETATM    7  C10 UNL     1      -1.682  50.247  -8.567  1.00  0.00     0.126 C 
HETATM    8  C11 UNL     1      -0.633  50.820  -9.215  1.00  0.00     0.022 C 
HETATM    9  C12 UNL     1      -0.744  52.059 -10.140  1.00  0.00     0.165 C 
HETATM   10  O4  UNL     1       0.131  53.073  -9.571  1.00  0.00    -0.375 OA
HETATM   11  C13 UNL     1       0.313  54.189 -10.437  1.00  0.00     0.128 C 
HETATM   12  C14 UNL     1       1.592  54.999 -10.135  1.00  0.00     0.033 C 
HETATM   13  C15 UNL     1       2.198  54.938  -8.731  1.00  0.00     0.010 C 
HETATM   14  C16 UNL     1       3.635  55.543  -8.623  1.00  0.00     0.004 C 
HETATM   15  C17 UNL     1       3.715  56.957  -9.193  1.00  0.00     0.014 C 
HETATM   16  C18 UNL     1       4.717  54.670  -9.251  1.00  0.00    -0.020 C 
HETATM   17  C19 UNL     1       5.892  54.297  -8.692  1.00  0.00    -0.087 C 
HETATM   18  C20 UNL     1       6.402  54.865  -7.398  1.00  0.00     0.043 C 
HETATM   19  C21 UNL     1       6.736  53.196  -9.337  1.00  0.00     0.037 C 
HETATM   20  C22 UNL     1       6.519  51.748  -8.770  1.00  0.00    -0.014 C 
HETATM   21  C23 UNL     1       7.316  51.499  -7.492  1.00  0.00     0.010 C 
HETATM   22  C24 UNL     1       5.018  51.535  -8.568  1.00  0.00     0.014 C 
HETATM   23  C25 UNL     1       4.400  50.217  -8.074  1.00  0.00     0.050 C 
HETATM   24  C26 UNL     1       4.860  48.929  -8.747  1.00  0.00     0.016 C 
HETATM   25  C27 UNL     1       2.852  50.399  -8.028  1.00  0.00     0.207 C 
HETATM   26  O6  UNL     1       2.223  49.279  -7.357  1.00  0.00    -0.308 OA
HETATM   27  C28 UNL     1      -0.990  54.990 -10.431  1.00  0.00     0.040 C 
HETATM   28  C29 UNL     1      -1.420  55.436  -9.037  1.00  0.00     0.015 C 
HETATM   29  C30 UNL     1      -2.030  54.091 -11.109  1.00  0.00     0.130 C 
HETATM   30  C31 UNL     1      -2.141  52.684 -10.474  1.00  0.00     0.044 C 
HETATM   31  C32 UNL     1      -2.920  51.782 -11.443  1.00  0.00     0.015 C 
ENDROOT
BRANCH   1  32
HETATM   32  S1  UNL     1       2.364  51.362 -10.768  1.00  0.00    -0.125 SA
BRANCH  32  33
HETATM   33  C4  UNL     1       1.884  50.208 -12.075  1.00  0.00     0.115 C 
BRANCH  33  34
HETATM   34  C3  UNL     1       2.643  50.315 -13.401  1.00  0.00     0.192 C 
BRANCH  34  35
HETATM   35  N1  UNL     1       1.758  49.924 -14.507  1.00  0.00    -0.346 N 
HETATM   36  C2  UNL     1       1.168  50.887 -15.299  1.00  0.00     0.214 C 
HETATM   37  C1  UNL     1       0.277  50.338 -16.379  1.00  0.00     0.117 C 
HETATM   38  O1  UNL     1       1.341  52.092 -15.122  1.00  0.00    -0.274 OA
HETATM   39  H4  UNL     1       1.886  49.009 -14.929  1.00  0.00     0.163 HD
ENDBRANCH  34  35
BRANCH  34  40
HETATM   40  C33 UNL     1       3.864  49.398 -13.300  1.00  0.00     0.164 C 
HETATM   41  O8  UNL     1       4.935  49.543 -13.877  1.00  0.00    -0.648 OA
BRANCH  40  42
HETATM   42  O9  UNL     1       3.732  48.396 -12.386  1.00  0.00    -0.775 OA
HETATM   43  H47 UNL     1       4.565  47.888 -12.519  1.00  0.00     0.167 HD
ENDBRANCH  40  42
ENDBRANCH  34  40
ENDBRANCH  33  34
ENDBRANCH  32  33
ENDBRANCH   1  32
BRANCH  25  44
HETATM   44  O5  UNL     1       2.624  51.551  -7.171  1.00  0.00    -0.360 OA
HETATM   45  H36 UNL     1       3.083  51.341  -6.341  1.00  0.00     0.213 HD
ENDBRANCH  25  44
BRANCH   7  46
HETATM   46  O3  UNL     1      -3.001  50.592  -8.779  1.00  0.00    -0.356 OA
HETATM   47  H9  UNL     1      -3.526  49.981  -8.199  1.00  0.00     0.218 HD
ENDBRANCH   7  46
BRANCH  29  48
HETATM   48  O7  UNL     1      -3.303  54.732 -11.122  1.00  0.00    -0.395 OA
HETATM   49  H42 UNL     1      -3.828  54.314 -11.830  1.00  0.00     0.210 HD
ENDBRANCH  29  48
TORSDOF 9
ENDMDL
