MODEL 1
REMARK minimizedAffinity -6.76034641
REMARK CNNscore 0.819078505
REMARK CNNaffinity 7.30089617
REMARK  6 active torsions:
REMARK  status: ('A' for Active; 'I' for Inactive)
REMARK    1  A    between atoms: C2_2  and  C30_32 
REMARK    2  A    between atoms: C3_3  and  C4_4 
REMARK    3  A    between atoms: C4_4  and  C5_5 
REMARK    4  A    between atoms: C5_5  and  C6_6 
REMARK    5  A    between atoms: C6_6  and  C8_8 
REMARK    6  A    between atoms: C30_32  and  O3_33 
ROOT
HETATM    1  C8  UNL     1       4.305  55.264  -8.175  1.00  0.00    -0.002 C 
HETATM    2  C9  UNL     1       3.462  56.503  -7.761  1.00  0.00     0.007 C 
HETATM    3  C10 UNL     1       2.034  56.275  -8.296  1.00  0.00     0.015 C 
HETATM    4  C11 UNL     1       1.971  54.773  -8.640  1.00  0.00    -0.005 C 
HETATM    5  C12 UNL     1       1.691  54.009  -7.308  1.00  0.00     0.021 C 
HETATM    6  C13 UNL     1       0.926  54.241  -9.609  1.00  0.00    -0.000 C 
HETATM    7  C14 UNL     1       1.152  53.133 -10.359  1.00  0.00    -0.060 C 
HETATM    8  C15 UNL     1       2.525  52.438 -10.319  1.00  0.00     0.036 C 
HETATM    9  C16 UNL     1       3.628  53.063  -9.438  1.00  0.00     0.015 C 
HETATM   10  C17 UNL     1       3.416  54.570  -9.249  1.00  0.00    -0.028 C 
HETATM   11  C18 UNL     1       3.596  55.260 -10.633  1.00  0.00     0.016 C 
HETATM   12  C19 UNL     1       0.102  52.512 -11.312  1.00  0.00    -0.014 C 
HETATM   13  C20 UNL     1       0.531  52.860 -12.764  1.00  0.00     0.020 C 
HETATM   14  C21 UNL     1       0.085  50.963 -11.169  1.00  0.00     0.021 C 
HETATM   15  C22 UNL     1      -1.246  50.345 -11.562  1.00  0.00     0.080 C 
HETATM   16  C23 UNL     1      -2.294  50.790 -10.572  1.00  0.00     0.135 C 
HETATM   17  O1  UNL     1      -3.140  49.992 -10.170  1.00  0.00    -0.297 OA
HETATM   18  C24 UNL     1      -2.254  52.257 -10.101  1.00  0.00     0.018 C 
HETATM   19  C25 UNL     1      -1.781  52.261  -8.640  1.00  0.00     0.023 C 
HETATM   20  C26 UNL     1      -3.709  52.776 -10.136  1.00  0.00     0.023 C 
HETATM   21  C27 UNL     1      -1.352  53.081 -11.093  1.00  0.00     0.020 C 
HETATM   22  C28 UNL     1      -1.303  54.589 -10.834  1.00  0.00     0.090 C 
HETATM   23  C29 UNL     1      -0.390  54.940  -9.692  1.00  0.00     0.157 C 
HETATM   24  O2  UNL     1      -0.712  55.803  -8.880  1.00  0.00    -0.293 OA
ENDROOT
BRANCH   1  25
HETATM   25  C6  UNL     1       5.819  55.575  -8.386  1.00  0.00    -0.014 C 
HETATM   26  C7  UNL     1       6.702  54.398  -8.808  1.00  0.00     0.010 C 
BRANCH  25  27
HETATM   27  C5  UNL     1       6.413  56.328  -7.171  1.00  0.00     0.008 C 
BRANCH  27  28
HETATM   28  C4  UNL     1       7.311  55.478  -6.254  1.00  0.00     0.028 C 
BRANCH  28  29
HETATM   29  C3  UNL     1       8.604  56.146  -5.878  1.00  0.00    -0.022 C 
HETATM   30  C2  UNL     1       9.564  55.679  -5.048  1.00  0.00    -0.064 C 
HETATM   31  C1  UNL     1       9.489  54.340  -4.363  1.00  0.00     0.045 C 
BRANCH  30  32
HETATM   32  C30 UNL     1      10.809  56.464  -4.690  1.00  0.00     0.197 C 
BRANCH  32  33
HETATM   33  O3  UNL     1      11.972  55.941  -5.316  1.00  0.00    -0.397 OA
HETATM   34  H46 UNL     1      12.058  55.025  -5.001  1.00  0.00     0.209 HD
ENDBRANCH  32  33
ENDBRANCH  30  32
ENDBRANCH  28  29
ENDBRANCH  27  28
ENDBRANCH  25  27
ENDBRANCH   1  25
TORSDOF 6
ENDMDL
