MODEL 1
REMARK minimizedAffinity -7.23778963
REMARK  10 active torsions:
REMARK  status: ('A' for Active; 'I' for Inactive)
REMARK    1  A    between atoms: C5_5  and  C6_6 
REMARK    2  A    between atoms: C6_6  and  C8_8 
REMARK    3  A    between atoms: C8_8  and  O1_9 
REMARK    4  A    between atoms: O1_9  and  C9_10 
REMARK    5  A    between atoms: C14_17  and  O4_18 
REMARK    6  A    between atoms: C17_21  and  O5_22 
REMARK    7  A    between atoms: C20_25  and  O6_27 
REMARK    8  A    between atoms: O6_27  and  C22_28 
REMARK    9  A    between atoms: C22_28  and  C23_30 
REMARK   10  A    between atoms: C23_30  and  C24_31 
ROOT
HETATM    1  C1  UNL     1       2.718   7.327  15.800  1.00  0.00     0.015 C 
HETATM    2  C2  UNL     1       2.217   8.038  14.775  1.00  0.00    -0.082 C 
HETATM    3  C3  UNL     1       3.055   8.239  13.534  1.00  0.00     0.034 C 
HETATM    4  C4  UNL     1       2.201   8.488  12.288  1.00  0.00     0.010 C 
HETATM    5  C5  UNL     1       0.911   7.639  12.278  1.00  0.00    -0.001 C 
HETATM    6  C11 UNL     1       0.049   7.958  13.542  1.00  0.00     0.033 C 
HETATM    7  C12 UNL     1      -0.575   6.751  14.289  1.00  0.00     0.162 C 
HETATM    8  O3  UNL     1      -0.820   7.192  15.648  1.00  0.00    -0.373 OA
HETATM    9  C13 UNL     1      -0.119   8.433  15.880  1.00  0.00     0.163 C 
HETATM   10  C14 UNL     1      -1.156   9.577  16.097  1.00  0.00     0.178 C 
HETATM   11  C15 UNL     1      -2.383   9.567  15.199  1.00  0.00    -0.030 C 
HETATM   12  C16 UNL     1      -2.581  10.527  14.276  1.00  0.00     0.019 C 
HETATM   13  C17 UNL     1      -3.400   8.472  15.458  1.00  0.00     0.149 C 
HETATM   14  C18 UNL     1      -3.947   7.709  14.250  1.00  0.00     0.039 C 
HETATM   15  C19 UNL     1      -2.967   7.090  13.246  1.00  0.00     0.044 C 
HETATM   16  C20 UNL     1      -1.861   6.083  13.698  1.00  0.00     0.093 C 
HETATM   17  C21 UNL     1      -2.474   5.065  14.683  1.00  0.00     0.049 C 
HETATM   18  C26 UNL     1       0.819   8.641  14.684  1.00  0.00     0.052 C 
ENDROOT
BRANCH   5  19
HETATM   19  C6  UNL     1       0.097   7.801  10.949  1.00  0.00     0.010 C 
HETATM   20  C7  UNL     1      -0.870   8.992  10.951  1.00  0.00     0.012 C 
BRANCH  19  21
HETATM   21  C8  UNL     1       1.000   7.819   9.694  1.00  0.00     0.183 C 
BRANCH  21  22
HETATM   22  O1  UNL     1       1.460   6.515   9.311  1.00  0.00    -0.321 OA
BRANCH  22  23
HETATM   23  C9  UNL     1       2.395   6.458   8.326  1.00  0.00     0.254 C 
HETATM   24  C10 UNL     1       2.152   7.546   7.327  1.00  0.00     0.126 C 
HETATM   25  O2  UNL     1       3.310   5.650   8.248  1.00  0.00    -0.266 OA
ENDBRANCH  22  23
ENDBRANCH  21  22
ENDBRANCH  19  21
ENDBRANCH   5  19
BRANCH  16  26
HETATM   26  O6  UNL     1      -1.559   5.370  12.446  1.00  0.00    -0.308 OA
BRANCH  26  27
HETATM   27  C22 UNL     1      -2.220   4.239  12.077  1.00  0.00     0.259 C 
HETATM   28  O7  UNL     1      -3.429   4.080  12.099  1.00  0.00    -0.265 OA
BRANCH  27  29
HETATM   29  C23 UNL     1      -1.209   3.204  11.632  1.00  0.00     0.111 C 
BRANCH  29  30
HETATM   30  C24 UNL     1      -1.849   1.944  11.052  1.00  0.00     0.005 C 
HETATM   31  C25 UNL     1      -0.829   0.858  10.732  1.00  0.00     0.005 C 
ENDBRANCH  29  30
ENDBRANCH  27  29
ENDBRANCH  26  27
ENDBRANCH  16  26
BRANCH  10  32
HETATM   32  O4  UNL     1      -1.633   9.542  17.453  1.00  0.00    -0.389 OA
HETATM   33  H21 UNL     1      -1.780   8.605  17.676  1.00  0.00     0.210 HD
ENDBRANCH  10  32
BRANCH  13  34
HETATM   34  O5  UNL     1      -4.521   9.069  16.123  1.00  0.00    -0.391 OA
HETATM   35  H25 UNL     1      -4.169   9.783  16.686  1.00  0.00     0.210 HD
ENDBRANCH  13  34
TORSDOF 10
ENDMDL
