MODEL 1
REMARK minimizedAffinity -7.81110144
REMARK CNNscore 0.656666875
REMARK CNNaffinity 6.28781748
REMARK  6 active torsions:
REMARK  status: ('A' for Active; 'I' for Inactive)
REMARK    1  A    between atoms: O1_2  and  C2_3 
REMARK    2  A    between atoms: C17_20  and  C18_21 
REMARK    3  A    between atoms: C22_27  and  O6_28 
REMARK    4  A    between atoms: O6_28  and  C23_29 
REMARK    5  A    between atoms: C26_33  and  O8_34 
REMARK    6  A    between atoms: C31_40  and  O10_41 
ROOT
HETATM    1  C2  UNL     1       8.494  19.734  23.828  1.00  0.00     0.190 C 
HETATM    2  C3  UNL     1       9.474  20.480  24.743  1.00  0.00     0.064 C 
HETATM    3  C4  UNL     1      10.575  19.581  25.279  1.00  0.00     0.174 C 
HETATM    4  O2  UNL     1      10.064  18.271  25.462  1.00  0.00    -0.356 OA
HETATM    5  C5  UNL     1       9.863  17.612  24.205  1.00  0.00     0.325 C 
HETATM    6  O3  UNL     1       9.128  16.406  24.439  1.00  0.00    -0.344 OA
HETATM    7  C6  UNL     1       9.075  15.647  23.231  1.00  0.00     0.177 C 
HETATM    8  C7  UNL     1       8.405  14.340  23.540  1.00  0.00     0.011 C 
HETATM    9  C8  UNL     1       7.598  13.680  22.690  1.00  0.00    -0.072 C 
HETATM   10  C9  UNL     1       7.189  12.257  22.993  1.00  0.00     0.035 C 
HETATM   11  C10 UNL     1       5.789  11.868  22.511  1.00  0.00     0.012 C 
HETATM   12  C11 UNL     1       5.585  12.257  21.035  1.00  0.00     0.026 C 
HETATM   13  C12 UNL     1       5.767  13.793  20.894  1.00  0.00     0.005 C 
HETATM   14  C13 UNL     1       4.596  14.528  21.602  1.00  0.00     0.007 C 
HETATM   15  C14 UNL     1       3.268  13.768  21.633  1.00  0.00     0.013 C 
HETATM   16  C15 UNL     1       3.051  12.807  20.440  1.00  0.00    -0.003 C 
HETATM   17  C16 UNL     1       2.821  13.688  19.189  1.00  0.00     0.019 C 
HETATM   18  C17 UNL     1       1.805  11.901  20.756  1.00  0.00     0.058 C 
HETATM   19  C22 UNL     1       2.430  10.726  21.541  1.00  0.00     0.143 C 
HETATM   20  C25 UNL     1       3.721  10.427  20.786  1.00  0.00     0.072 C 
HETATM   21  C26 UNL     1       4.261  11.798  20.332  1.00  0.00     0.072 C 
HETATM   22  C27 UNL     1       7.197  14.286  21.351  1.00  0.00    -0.014 C 
HETATM   23  C28 UNL     1       8.247  13.861  20.294  1.00  0.00     0.020 C 
HETATM   24  C29 UNL     1       7.213  15.839  21.464  1.00  0.00     0.049 C 
HETATM   25  C30 UNL     1       8.486  16.458  22.050  1.00  0.00     0.159 C 
HETATM   26  O9  UNL     1       8.126  17.803  22.414  1.00  0.00    -0.341 OA
HETATM   27  C31 UNL     1       9.144  18.507  23.132  1.00  0.00     0.240 C 
ENDROOT
BRANCH  18  28
HETATM   28  C18 UNL     1       0.941  11.482  19.585  1.00  0.00    -0.043 A 
HETATM   29  C19 UNL     1      -0.366  11.730  19.473  1.00  0.00     0.087 A 
HETATM   30  C20 UNL     1      -0.815  11.157  18.208  1.00  0.00     0.283 A 
HETATM   31  O4  UNL     1      -1.955  11.202  17.787  1.00  0.00    -0.260 OA
HETATM   32  O5  UNL     1       0.238  10.564  17.592  1.00  0.00    -0.314 OA
HETATM   33  C21 UNL     1       1.404  10.714  18.403  1.00  0.00     0.214 A 
ENDBRANCH  18  28
BRANCH  19  34
HETATM   34  O6  UNL     1       1.607   9.556  21.590  1.00  0.00    -0.316 OA
BRANCH  34  35
HETATM   35  C23 UNL     1       2.012   8.598  22.468  1.00  0.00     0.255 C 
HETATM   36  C24 UNL     1       2.633   9.234  23.673  1.00  0.00     0.126 C 
HETATM   37  O7  UNL     1       1.883   7.393  22.308  1.00  0.00    -0.266 OA
ENDBRANCH  34  35
ENDBRANCH  19  34
BRANCH  21  38
HETATM   38  O8  UNL     1       4.582  11.644  18.935  1.00  0.00    -0.389 OA
HETATM   39  H35 UNL     1       5.298  10.986  18.850  1.00  0.00     0.210 HD
ENDBRANCH  21  38
BRANCH  27  40
HETATM   40  O10 UNL     1      10.095  18.988  22.169  1.00  0.00    -0.360 OA
HETATM   41  H42 UNL     1       9.680  19.810  21.838  1.00  0.00     0.213 HD
ENDBRANCH  27  40
BRANCH   1  42
HETATM   42  O1  UNL     1       8.050  20.653  22.800  1.00  0.00    -0.385 OA
HETATM   43  C1  UNL     1       8.395  22.003  23.096  1.00  0.00     0.202 C 
ENDBRANCH   1  42
TORSDOF 6
ENDMDL
