MODEL 1
REMARK minimizedAffinity -9.74305725
REMARK  7 active torsions:
REMARK  status: ('A' for Active; 'I' for Inactive)
REMARK    1  A    between atoms: C2_2  and  C4_4 
REMARK    2  A    between atoms: C7_7  and  C8_8 
REMARK    3  A    between atoms: C8_8  and  O2_10 
REMARK    4  A    between atoms: C15_17  and  O3_18 
REMARK    5  A    between atoms: C21_24  and  O4_25 
REMARK    6  A    between atoms: C22_26  and  C24_28 
REMARK    7  A    between atoms: C24_28  and  O5_29 
ROOT
HETATM    1  C4  UNL     1      -8.007   5.527  13.982  1.00  0.00     0.019 C 
HETATM    2  C5  UNL     1      -9.297   6.188  14.539  1.00  0.00     0.011 C 
HETATM    3  C6  UNL     1      -8.916   7.614  14.972  1.00  0.00     0.021 C 
HETATM    4  C7  UNL     1      -7.402   7.542  15.195  1.00  0.00     0.050 C 
HETATM    5  C9  UNL     1      -6.665   8.885  15.132  1.00  0.00     0.022 C 
HETATM    6  C10 UNL     1      -5.138   8.669  15.129  1.00  0.00     0.011 C 
HETATM    7  C11 UNL     1      -4.607   7.706  14.005  1.00  0.00    -0.032 C 
HETATM    8  C12 UNL     1      -4.806   8.491  12.664  1.00  0.00     0.016 C 
HETATM    9  C13 UNL     1      -5.464   6.382  13.994  1.00  0.00     0.003 C 
HETATM   10  C14 UNL     1      -5.009   5.446  12.875  1.00  0.00     0.038 C 
HETATM   11  C15 UNL     1      -3.510   5.110  12.914  1.00  0.00     0.124 C 
HETATM   12  C16 UNL     1      -2.577   6.357  13.021  1.00  0.00     0.032 C 
HETATM   13  C17 UNL     1      -0.988   6.081  12.940  1.00  0.00    -0.033 C 
HETATM   14  C18 UNL     1      -0.521   5.133  14.070  1.00  0.00     0.016 C 
HETATM   15  C19 UNL     1      -0.630   5.390  11.586  1.00  0.00     0.012 C 
HETATM   16  C20 UNL     1       0.862   5.358  11.244  1.00  0.00     0.033 C 
HETATM   17  C21 UNL     1       1.497   6.741  11.268  1.00  0.00     0.128 C 
HETATM   18  C22 UNL     1       1.282   7.498  12.613  1.00  0.00     0.007 C 
HETATM   19  C23 UNL     1       2.150   6.854  13.714  1.00  0.00     0.020 C 
HETATM   20  C25 UNL     1      -0.265   7.492  12.952  1.00  0.00     0.007 C 
HETATM   21  C26 UNL     1      -0.648   8.307  14.200  1.00  0.00     0.007 C 
HETATM   22  C27 UNL     1      -2.153   8.570  14.253  1.00  0.00     0.011 C 
HETATM   23  C28 UNL     1      -3.044   7.301  14.217  1.00  0.00    -0.030 C 
HETATM   24  C29 UNL     1      -2.862   6.591  15.595  1.00  0.00     0.016 C 
HETATM   25  C30 UNL     1      -6.981   6.686  13.976  1.00  0.00     0.017 C 
ENDROOT
BRANCH   4  26
HETATM   26  C8  UNL     1      -7.173   6.900  16.573  1.00  0.00     0.149 C 
HETATM   27  O1  UNL     1      -7.697   7.196  17.633  1.00  0.00    -0.649 OA
BRANCH  26  28
HETATM   28  O2  UNL     1      -6.251   5.915  16.547  1.00  0.00    -0.776 OA
HETATM   29  H11 UNL     1      -6.201   5.614  17.479  1.00  0.00     0.167 HD
ENDBRANCH  26  28
ENDBRANCH   4  26
BRANCH   1  30
HETATM   30  C2  UNL     1      -8.309   4.789  12.687  1.00  0.00    -0.088 C 
HETATM   31  C1  UNL     1      -8.201   3.462  12.509  1.00  0.00     0.014 C 
HETATM   32  C3  UNL     1      -8.749   5.672  11.546  1.00  0.00     0.043 C 
ENDBRANCH   1  30
BRANCH  11  33
HETATM   33  O3  UNL     1      -3.252   4.353  11.733  1.00  0.00    -0.395 OA
HETATM   34  H23 UNL     1      -3.437   4.925  10.968  1.00  0.00     0.210 HD
ENDBRANCH  11  33
BRANCH  18  35
HETATM   35  C24 UNL     1       1.793   8.960  12.385  1.00  0.00     0.176 C 
BRANCH  35  36
HETATM   36  O5  UNL     1       1.117   9.932  13.178  1.00  0.00    -0.400 OA
HETATM   37  H39 UNL     1       1.461   9.865  14.085  1.00  0.00     0.209 HD
ENDBRANCH  35  36
ENDBRANCH  18  35
BRANCH  17  38
HETATM   38  O4  UNL     1       0.948   7.505  10.188  1.00  0.00    -0.395 OA
HETATM   39  H33 UNL     1       1.099   7.006   9.366  1.00  0.00     0.210 HD
ENDBRANCH  17  38
TORSDOF 7
ENDMDL
