MODEL 1
REMARK minimizedAffinity -7.98330641
REMARK CNNscore 0.763228655
REMARK CNNaffinity 6.96649218
REMARK  14 active torsions:
REMARK  status: ('A' for Active; 'I' for Inactive)
REMARK    1  A    between atoms: C19_21  and  O3_22 
REMARK    2  A    between atoms: C19_21  and  C20_23 
REMARK    3  A    between atoms: C20_23  and  C21_25 
REMARK    4  A    between atoms: C21_25  and  O5_26 
REMARK    5  A    between atoms: O5_26  and  C22_27 
REMARK    6  A    between atoms: C22_27  and  C23_29 
REMARK    7  A    between atoms: C23_29  and  C24_30 
REMARK    8  A    between atoms: C24_30  and  C25_31 
REMARK       I    between atoms: C25_31  and  N1_33 
REMARK    9  A    between atoms: N1_33  and  C26_34 
REMARK   10  A    between atoms: C26_34  and  C27_35 
REMARK   11  A    between atoms: C26_34  and  C30_40 
REMARK   12  A    between atoms: C27_35  and  C28_36 
REMARK   13  A    between atoms: C28_36  and  C29_37 
REMARK       I    between atoms: C29_37  and  N2_38 
REMARK   14  A    between atoms: C30_40  and  O10_42 
ROOT
HETATM    1  C20 UNL     1      -3.073  50.524 -13.285  1.00  0.00     0.185 C 
HETATM    2  O4  UNL     1      -3.561  49.515 -12.762  1.00  0.00    -0.292 OA
ENDROOT
BRANCH   1   3
HETATM    3  C19 UNL     1      -2.893  51.854 -12.494  1.00  0.00     0.128 C 
HETATM    4  C14 UNL     1      -1.496  52.011 -11.807  1.00  0.00     0.005 C 
HETATM    5  C13 UNL     1      -0.381  52.603 -12.676  1.00  0.00     0.091 C 
HETATM    6  C15 UNL     1      -1.006  50.661 -11.215  1.00  0.00     0.019 C 
HETATM    7  C16 UNL     1      -1.837  53.067 -10.724  1.00  0.00     0.002 C 
HETATM    8  C12 UNL     1       0.815  52.979 -11.810  1.00  0.00     0.133 C 
HETATM    9  C11 UNL     1       0.540  53.903 -10.602  1.00  0.00     0.072 C 
HETATM   10  O2  UNL     1       1.940  52.611 -12.142  1.00  0.00    -0.297 OA
HETATM   11  C2  UNL     1       1.791  54.246  -9.712  1.00  0.00    -0.009 C 
HETATM   12  C10 UNL     1      -0.663  53.358  -9.777  1.00  0.00     0.003 C 
HETATM   13  C1  UNL     1       2.474  52.980  -9.150  1.00  0.00     0.021 C 
HETATM   14  C3  UNL     1       2.810  55.056 -10.572  1.00  0.00     0.022 C 
HETATM   15  C7  UNL     1       1.342  55.106  -8.516  1.00  0.00    -0.067 C 
HETATM   16  C4  UNL     1       3.892  55.745  -9.751  1.00  0.00     0.084 C 
HETATM   17  C5  UNL     1       3.269  56.641  -8.715  1.00  0.00     0.149 C 
HETATM   18  O1  UNL     1       3.811  57.670  -8.322  1.00  0.00    -0.293 OA
HETATM   19  C6  UNL     1       1.993  56.209  -8.101  1.00  0.00     0.053 C 
HETATM   20  C8  UNL     1       0.117  54.647  -7.762  1.00  0.00     0.035 C 
HETATM   21  C9  UNL     1      -1.055  54.369  -8.692  1.00  0.00     0.010 C 
HETATM   22  C17 UNL     1      -3.133  52.547 -10.114  1.00  0.00     0.009 C 
HETATM   23  C18 UNL     1      -3.884  51.901 -11.292  1.00  0.00     0.047 C 
BRANCH   3  24
HETATM   24  O3  UNL     1      -3.178  53.028 -13.259  1.00  0.00    -0.381 OA
HETATM   25  H25 UNL     1      -2.682  52.986 -14.097  1.00  0.00     0.211 HD
ENDBRANCH   3  24
ENDBRANCH   1   3
BRANCH   1  26
HETATM   26  C21 UNL     1      -2.472  50.437 -14.688  1.00  0.00     0.260 C 
BRANCH  26  27
HETATM   27  O5  UNL     1      -3.171  51.132 -15.717  1.00  0.00    -0.314 OA
BRANCH  27  28
HETATM   28  C22 UNL     1      -2.722  50.852 -16.976  1.00  0.00     0.259 C 
HETATM   29  O6  UNL     1      -2.707  51.646 -17.906  1.00  0.00    -0.265 OA
BRANCH  28  30
HETATM   30  C23 UNL     1      -2.126  49.468 -17.055  1.00  0.00     0.120 C 
BRANCH  30  31
HETATM   31  C24 UNL     1      -0.754  49.417 -17.711  1.00  0.00     0.112 C 
BRANCH  31  32
HETATM   32  C25 UNL     1      -0.871  49.334 -19.219  1.00  0.00     0.218 C 
HETATM   33  O7  UNL     1      -1.260  48.323 -19.791  1.00  0.00    -0.274 OA
HETATM   34  N1  UNL     1      -0.457  50.458 -19.883  1.00  0.00    -0.347 N 
HETATM   35  H32 UNL     1      -0.273  51.320 -19.376  1.00  0.00     0.163 HD
BRANCH  34  36
HETATM   36  C26 UNL     1      -0.590  50.616 -21.330  1.00  0.00     0.182 C 
BRANCH  36  37
HETATM   37  C27 UNL     1       0.296  51.727 -21.922  1.00  0.00     0.045 C 
BRANCH  37  38
HETATM   38  C28 UNL     1       1.309  52.392 -20.988  1.00  0.00     0.105 C 
BRANCH  38  39
HETATM   39  C29 UNL     1       1.130  53.881 -20.807  1.00  0.00     0.215 C 
HETATM   40  N2  UNL     1       0.410  54.225 -19.700  1.00  0.00    -0.370 N 
HETATM   41  H38 UNL     1       0.252  53.570 -18.947  1.00  0.00     0.159 HD
HETATM   42  H39 UNL     1       0.337  55.213 -19.491  1.00  0.00     0.159 HD
HETATM   43  O8  UNL     1       1.544  54.738 -21.574  1.00  0.00    -0.274 OA
ENDBRANCH  38  39
ENDBRANCH  37  38
ENDBRANCH  36  37
BRANCH  36  44
HETATM   44  C30 UNL     1      -2.065  50.779 -21.730  1.00  0.00     0.163 C 
HETATM   45  O9  UNL     1      -2.751  51.779 -21.594  1.00  0.00    -0.648 OA
BRANCH  44  46
HETATM   46  O10 UNL     1      -2.574  49.689 -22.351  1.00  0.00    -0.775 OA
HETATM   47  H40 UNL     1      -3.514  49.937 -22.494  1.00  0.00     0.167 HD
ENDBRANCH  44  46
ENDBRANCH  36  44
ENDBRANCH  34  36
ENDBRANCH  31  32
ENDBRANCH  30  31
ENDBRANCH  28  30
ENDBRANCH  27  28
ENDBRANCH  26  27
ENDBRANCH   1  26
TORSDOF 14
ENDMDL
