MODEL 1
REMARK minimizedAffinity -7.52331114
REMARK CNNscore 0.815965593
REMARK CNNaffinity 6.99127626
REMARK  8 active torsions:
REMARK  status: ('A' for Active; 'I' for Inactive)
REMARK    1  A    between atoms: C2_2  and  C3_3 
REMARK    2  A    between atoms: C2_2  and  C27_30 
REMARK    3  A    between atoms: C3_3  and  C4_4 
REMARK    4  A    between atoms: C4_4  and  C5_5 
REMARK    5  A    between atoms: C5_5  and  C7_7 
REMARK    6  A    between atoms: C26_28  and  O3_29 
REMARK    7  A    between atoms: C27_30  and  C29_32 
REMARK    8  A    between atoms: C29_32  and  O5_34 
ROOT
HETATM    1  C7  UNL     1       2.976  56.507  -8.844  1.00  0.00    -0.002 C 
HETATM    2  C8  UNL     1       3.807  56.295 -10.136  1.00  0.00     0.006 C 
HETATM    3  C9  UNL     1       3.060  55.243 -10.965  1.00  0.00     0.010 C 
HETATM    4  C10 UNL     1       1.670  55.180 -10.330  1.00  0.00     0.027 C 
HETATM    5  C11 UNL     1       0.666  54.091 -10.656  1.00  0.00    -0.036 C 
HETATM    6  C12 UNL     1      -0.368  53.842  -9.811  1.00  0.00     0.002 C 
HETATM    7  C13 UNL     1      -0.397  54.542  -8.462  1.00  0.00     0.157 C 
HETATM    8  O1  UNL     1      -1.287  54.302  -7.646  1.00  0.00    -0.293 OA
HETATM    9  C14 UNL     1       0.659  55.577  -8.117  1.00  0.00     0.093 C 
HETATM   10  C15 UNL     1       1.988  55.299  -8.819  1.00  0.00    -0.026 C 
HETATM   11  C16 UNL     1       2.619  54.015  -8.238  1.00  0.00     0.016 C 
HETATM   12  C17 UNL     1      -1.526  52.874 -10.147  1.00  0.00    -0.008 C 
HETATM   13  C18 UNL     1      -1.261  51.570  -9.350  1.00  0.00     0.021 C 
HETATM   14  C19 UNL     1      -2.923  53.452  -9.737  1.00  0.00     0.022 C 
HETATM   15  C20 UNL     1      -4.102  53.064 -10.627  1.00  0.00     0.080 C 
HETATM   16  C21 UNL     1      -3.903  51.720 -11.274  1.00  0.00     0.131 C 
HETATM   17  O2  UNL     1      -4.767  50.846 -11.223  1.00  0.00    -0.298 OA
HETATM   18  C22 UNL     1      -2.623  51.527 -12.072  1.00  0.00     0.056 C 
HETATM   19  C23 UNL     1      -2.975  51.541 -13.559  1.00  0.00     0.018 C 
HETATM   20  C24 UNL     1      -1.582  52.611 -11.694  1.00  0.00     0.012 C 
HETATM   21  C25 UNL     1      -0.197  52.269 -12.240  1.00  0.00     0.042 C 
HETATM   22  C26 UNL     1       0.801  53.400 -11.992  1.00  0.00     0.148 C 
ENDROOT
BRANCH   1  23
HETATM   23  C5  UNL     1       3.829  56.918  -7.607  1.00  0.00    -0.014 C 
HETATM   24  C6  UNL     1       5.254  56.357  -7.569  1.00  0.00     0.010 C 
BRANCH  23  25
HETATM   25  C4  UNL     1       3.070  56.645  -6.286  1.00  0.00     0.009 C 
BRANCH  25  26
HETATM   26  C3  UNL     1       2.083  57.750  -5.855  1.00  0.00     0.034 C 
BRANCH  26  27
HETATM   27  C2  UNL     1       2.029  58.173  -4.396  1.00  0.00    -0.075 C 
HETATM   28  C1  UNL     1       3.039  58.831  -3.796  1.00  0.00     0.015 C 
BRANCH  27  29
HETATM   29  C27 UNL     1       0.791  57.778  -3.588  1.00  0.00     0.107 C 
HETATM   30  C28 UNL     1       0.454  58.782  -2.486  1.00  0.00     0.026 C 
BRANCH  29  31
HETATM   31  C29 UNL     1      -0.437  57.539  -4.467  1.00  0.00     0.147 C 
HETATM   32  O4  UNL     1      -0.477  57.154  -5.623  1.00  0.00    -0.650 OA
BRANCH  31  33
HETATM   33  O5  UNL     1      -1.589  57.828  -3.821  1.00  0.00    -0.776 OA
HETATM   34  H42 UNL     1      -2.282  57.633  -4.486  1.00  0.00     0.167 HD
ENDBRANCH  31  33
ENDBRANCH  29  31
ENDBRANCH  27  29
ENDBRANCH  26  27
ENDBRANCH  25  26
ENDBRANCH  23  25
ENDBRANCH   1  23
BRANCH  22  35
HETATM   35  O3  UNL     1       2.097  52.825 -12.095  1.00  0.00    -0.391 OA
HETATM   36  H37 UNL     1       2.183  52.451 -12.989  1.00  0.00     0.210 HD
ENDBRANCH  22  35
TORSDOF 8
ENDMDL
