MODEL 1
REMARK minimizedAffinity -9.55630875
REMARK  8 active torsions:
REMARK  status: ('A' for Active; 'I' for Inactive)
REMARK    1  A    between atoms: C2_2  and  C4_4 
REMARK    2  A    between atoms: C4_4  and  O1_5 
REMARK    3  A    between atoms: C4_4  and  C5_6 
REMARK    4  A    between atoms: C5_6  and  C6_7 
REMARK    5  A    between atoms: C6_7  and  C7_8 
REMARK    6  A    between atoms: C7_8  and  C9_10 
REMARK    7  A    between atoms: C12_13  and  C13_14 
REMARK    8  A    between atoms: C13_14  and  O3_16 
ROOT
HETATM    1  C9  UNL     1       1.403   7.063  12.694  1.00  0.00    -0.001 C 
HETATM    2  C10 UNL     1       0.566   8.297  13.151  1.00  0.00     0.007 C 
HETATM    3  C11 UNL     1      -0.915   7.886  13.151  1.00  0.00     0.022 C 
HETATM    4  C12 UNL     1      -0.894   6.348  13.021  1.00  0.00     0.057 C 
HETATM    5  C14 UNL     1      -2.173   5.729  12.404  1.00  0.00     0.014 C 
HETATM    6  C15 UNL     1      -3.419   5.784  13.297  1.00  0.00     0.007 C 
HETATM    7  C16 UNL     1      -4.634   5.251  12.535  1.00  0.00     0.007 C 
HETATM    8  C17 UNL     1      -4.490   3.739  12.317  1.00  0.00     0.010 C 
HETATM    9  C18 UNL     1      -5.669   3.066  11.544  1.00  0.00     0.018 C 
HETATM   10  C19 UNL     1      -6.980   3.198  12.340  1.00  0.00     0.023 C 
HETATM   11  C20 UNL     1      -5.887   3.633  10.133  1.00  0.00     0.023 C 
HETATM   12  C21 UNL     1      -5.371   1.564  11.394  1.00  0.00     0.135 C 
HETATM   13  O4  UNL     1      -6.123   0.814  10.769  1.00  0.00    -0.297 OA
HETATM   14  C22 UNL     1      -4.158   1.016  12.105  1.00  0.00     0.080 C 
HETATM   15  C23 UNL     1      -2.906   1.819  11.776  1.00  0.00     0.018 C 
HETATM   16  C24 UNL     1      -3.140   3.330  11.720  1.00  0.00    -0.026 A 
HETATM   17  C25 UNL     1      -2.585   4.034  10.502  1.00  0.00     0.021 A 
HETATM   18  C26 UNL     1      -1.935   4.308  11.841  1.00  0.00    -0.027 A 
HETATM   19  C27 UNL     1      -0.556   3.707  12.092  1.00  0.00     0.011 C 
HETATM   20  C28 UNL     1       0.643   4.652  11.893  1.00  0.00     0.012 C 
HETATM   21  C29 UNL     1       0.317   6.153  12.029  1.00  0.00    -0.022 C 
HETATM   22  C30 UNL     1       0.033   6.683  10.586  1.00  0.00     0.017 C 
ENDROOT
BRANCH   1  23
HETATM   23  C7  UNL     1       2.675   7.484  11.894  1.00  0.00    -0.014 C 
HETATM   24  C8  UNL     1       2.429   8.716  11.020  1.00  0.00     0.010 C 
BRANCH  23  25
HETATM   25  C6  UNL     1       3.180   6.298  11.023  1.00  0.00     0.007 C 
BRANCH  25  26
HETATM   26  C5  UNL     1       3.630   6.689   9.603  1.00  0.00     0.036 C 
BRANCH  26  27
HETATM   27  C4  UNL     1       2.706   6.174   8.482  1.00  0.00     0.146 C 
BRANCH  27  28
HETATM   28  C2  UNL     1       2.385   7.241   7.441  1.00  0.00    -0.065 C 
HETATM   29  C1  UNL     1       1.644   7.030   6.338  1.00  0.00     0.016 C 
HETATM   30  C3  UNL     1       2.904   8.626   7.737  1.00  0.00     0.045 C 
ENDBRANCH  27  28
BRANCH  27  31
HETATM   31  O1  UNL     1       3.324   5.049   7.859  1.00  0.00    -0.391 OA
HETATM   32  H7  UNL     1       4.180   5.354   7.511  1.00  0.00     0.210 HD
ENDBRANCH  27  31
ENDBRANCH  26  27
ENDBRANCH  25  26
ENDBRANCH  23  25
ENDBRANCH   1  23
BRANCH   4  33
HETATM   33  C13 UNL     1      -0.630   5.777  14.440  1.00  0.00     0.149 C 
HETATM   34  O2  UNL     1      -1.382   5.115  15.135  1.00  0.00    -0.649 OA
BRANCH  33  35
HETATM   35  O3  UNL     1       0.595   6.070  14.926  1.00  0.00    -0.776 OA
HETATM   36  H21 UNL     1       0.609   5.632  15.804  1.00  0.00     0.167 HD
ENDBRANCH  33  35
ENDBRANCH   4  33
TORSDOF 8
ENDMDL
