MODEL 1
REMARK minimizedAffinity -7.94883919
REMARK CNNscore 0.80731672
REMARK CNNaffinity 6.71567488
REMARK  9 active torsions:
REMARK  status: ('A' for Active; 'I' for Inactive)
REMARK    1  A    between atoms: C2_2  and  C30_35 
REMARK    2  A    between atoms: C3_3  and  C4_4 
REMARK    3  A    between atoms: C4_4  and  O1_5 
REMARK    4  A    between atoms: C4_4  and  C5_6 
REMARK    5  A    between atoms: C5_6  and  C6_7 
REMARK    6  A    between atoms: C6_7  and  C8_9 
REMARK    7  A    between atoms: C10_11  and  O2_12 
REMARK    8  A    between atoms: C29_33  and  O5_34 
REMARK    9  A    between atoms: C30_35  and  O7_37 
ROOT
HETATM    1  C8  UNL     1       0.641  12.938  19.536  1.00  0.00     0.001 C 
HETATM    2  C9  UNL     1      -0.703  13.682  19.293  1.00  0.00     0.038 C 
HETATM    3  C10 UNL     1      -1.363  13.017  18.068  1.00  0.00     0.132 C 
HETATM    4  C11 UNL     1      -0.638  11.651  17.930  1.00  0.00     0.017 C 
HETATM    5  C12 UNL     1      -1.263  10.653  18.962  1.00  0.00     0.023 C 
HETATM    6  C13 UNL     1      -0.655  10.911  16.588  1.00  0.00    -0.029 C 
HETATM    7  C14 UNL     1       0.289   9.974  16.299  1.00  0.00     0.002 C 
HETATM    8  C15 UNL     1       1.460   9.818  17.265  1.00  0.00     0.157 C 
HETATM    9  O3  UNL     1       2.265   8.897  17.142  1.00  0.00    -0.293 OA
HETATM   10  C16 UNL     1       1.671  10.814  18.404  1.00  0.00     0.094 C 
HETATM   11  C17 UNL     1       0.839  12.085  18.243  1.00  0.00    -0.019 C 
HETATM   12  C18 UNL     1       1.480  12.941  17.113  1.00  0.00     0.017 C 
HETATM   13  C19 UNL     1       0.261   9.116  15.000  1.00  0.00    -0.008 C 
HETATM   14  C20 UNL     1       1.318   9.754  14.070  1.00  0.00     0.021 C 
HETATM   15  C21 UNL     1       0.608   7.619  15.240  1.00  0.00     0.022 C 
HETATM   16  C22 UNL     1       0.451   6.737  14.010  1.00  0.00     0.080 C 
HETATM   17  C23 UNL     1      -0.940   6.819  13.441  1.00  0.00     0.135 C 
HETATM   18  O4  UNL     1      -1.537   5.788  13.123  1.00  0.00    -0.297 OA
HETATM   19  C24 UNL     1      -1.519   8.217  13.183  1.00  0.00     0.018 C 
HETATM   20  C25 UNL     1      -0.978   8.728  11.840  1.00  0.00     0.023 C 
HETATM   21  C26 UNL     1      -3.054   8.061  13.024  1.00  0.00     0.023 C 
HETATM   22  C27 UNL     1      -1.214   9.127  14.424  1.00  0.00     0.016 C 
HETATM   23  C28 UNL     1      -1.714  10.574  14.269  1.00  0.00     0.043 C 
HETATM   24  C29 UNL     1      -1.748  11.289  15.620  1.00  0.00     0.149 C 
ENDROOT
BRANCH   1  25
HETATM   25  C6  UNL     1       1.763  13.838  20.138  1.00  0.00    -0.011 C 
HETATM   26  C7  UNL     1       3.011  14.044  19.271  1.00  0.00     0.010 C 
BRANCH  25  27
HETATM   27  C5  UNL     1       2.131  13.384  21.574  1.00  0.00     0.040 C 
BRANCH  27  28
HETATM   28  C4  UNL     1       3.201  12.283  21.639  1.00  0.00     0.142 C 
BRANCH  28  29
HETATM   29  C3  UNL     1       2.593  10.953  22.003  1.00  0.00     0.018 C 
HETATM   30  C2  UNL     1       3.139   9.921  22.683  1.00  0.00     0.010 C 
HETATM   31  C1  UNL     1       4.555   9.855  23.178  1.00  0.00     0.055 C 
BRANCH  30  32
HETATM   32  C30 UNL     1       2.337   8.703  22.976  1.00  0.00     0.171 C 
HETATM   33  O6  UNL     1       1.947   7.899  22.146  1.00  0.00    -0.646 OA
BRANCH  32  34
HETATM   34  O7  UNL     1       2.051   8.536  24.278  1.00  0.00    -0.773 OA
HETATM   35  H44 UNL     1       1.522   7.713  24.289  1.00  0.00     0.167 HD
ENDBRANCH  32  34
ENDBRANCH  30  32
ENDBRANCH  28  29
BRANCH  28  36
HETATM   36  O1  UNL     1       3.897  12.183  20.407  1.00  0.00    -0.392 OA
HETATM   37  H6  UNL     1       4.543  11.462  20.505  1.00  0.00     0.210 HD
ENDBRANCH  28  36
ENDBRANCH  27  28
ENDBRANCH  25  27
ENDBRANCH   1  25
BRANCH   3  38
HETATM   38  O2  UNL     1      -2.763  12.913  18.274  1.00  0.00    -0.394 OA
HETATM   39  H17 UNL     1      -3.118  12.345  17.556  1.00  0.00     0.210 HD
ENDBRANCH   3  38
BRANCH  24  40
HETATM   40  O5  UNL     1      -3.002  11.056  16.255  1.00  0.00    -0.391 OA
HETATM   41  H43 UNL     1      -3.114  10.093  16.348  1.00  0.00     0.210 HD
ENDBRANCH  24  40
TORSDOF 9
ENDMDL
