MODEL 1
REMARK minimizedAffinity -7.3989315
REMARK CNNscore 0.400617927
REMARK CNNaffinity 6.75056458
REMARK  6 active torsions:
REMARK  status: ('A' for Active; 'I' for Inactive)
REMARK    1  A    between atoms: C2_2  and  C30_32 
REMARK    2  A    between atoms: C3_3  and  C4_4 
REMARK    3  A    between atoms: C4_4  and  C5_6 
REMARK    4  A    between atoms: C5_6  and  C6_7 
REMARK    5  A    between atoms: C6_7  and  C8_9 
REMARK    6  A    between atoms: C30_32  and  O4_34 
ROOT
HETATM    1  C8  UNL     1      -1.676   9.741  14.990  1.00  0.00    -0.001 C 
HETATM    2  C9  UNL     1      -0.559   9.036  14.162  1.00  0.00     0.007 C 
HETATM    3  C10 UNL     1      -1.161   7.747  13.574  1.00  0.00     0.015 C 
HETATM    4  C11 UNL     1      -2.682   7.899  13.775  1.00  0.00    -0.013 C 
HETATM    5  C12 UNL     1      -3.191   8.764  12.581  1.00  0.00     0.021 C 
HETATM    6  C13 UNL     1      -3.537   6.641  13.778  1.00  0.00    -0.070 C 
HETATM    7  C14 UNL     1      -3.163   5.484  13.201  1.00  0.00    -0.022 C 
HETATM    8  C15 UNL     1      -4.085   4.303  13.142  1.00  0.00     0.034 C 
HETATM    9  C16 UNL     1      -5.510   4.809  12.871  1.00  0.00     0.013 C 
HETATM   10  C17 UNL     1      -6.525   3.709  12.429  1.00  0.00     0.018 C 
HETATM   11  C18 UNL     1      -6.340   3.395  10.929  1.00  0.00     0.023 C 
HETATM   12  C19 UNL     1      -6.372   2.386  13.202  1.00  0.00     0.023 C 
HETATM   13  C20 UNL     1      -7.957   4.241  12.585  1.00  0.00     0.135 C 
HETATM   14  O2  UNL     1      -8.926   3.484  12.669  1.00  0.00    -0.297 OA
HETATM   15  C21 UNL     1      -8.166   5.739  12.522  1.00  0.00     0.080 C 
HETATM   16  C22 UNL     1      -7.196   6.562  13.375  1.00  0.00     0.017 C 
HETATM   17  C23 UNL     1      -6.024   5.766  14.007  1.00  0.00    -0.031 C 
HETATM   18  C24 UNL     1      -6.572   5.010  15.247  1.00  0.00     0.016 C 
HETATM   19  C25 UNL     1      -4.852   6.700  14.562  1.00  0.00     0.024 C 
HETATM   20  C26 UNL     1      -5.287   8.135  14.945  1.00  0.00     0.010 C 
HETATM   21  C27 UNL     1      -4.173   9.065  15.478  1.00  0.00     0.011 C 
HETATM   22  C28 UNL     1      -2.730   8.599  15.180  1.00  0.00    -0.029 C 
HETATM   23  C29 UNL     1      -2.254   7.674  16.346  1.00  0.00     0.016 C 
ENDROOT
BRANCH   1  24
HETATM   24  C6  UNL     1      -1.104  10.478  16.236  1.00  0.00    -0.007 C 
HETATM   25  C7  UNL     1       0.176   9.820  16.764  1.00  0.00     0.011 C 
BRANCH  24  26
HETATM   26  C5  UNL     1      -2.145  10.516  17.381  1.00  0.00     0.087 C 
BRANCH  26  27
HETATM   27  C4  UNL     1      -2.972  11.789  17.343  1.00  0.00     0.150 C 
HETATM   28  O1  UNL     1      -2.893  12.589  16.415  1.00  0.00    -0.293 OA
BRANCH  27  29
HETATM   29  C3  UNL     1      -3.936  12.000  18.461  1.00  0.00     0.063 C 
HETATM   30  C2  UNL     1      -4.006  13.129  19.188  1.00  0.00     0.015 C 
HETATM   31  C1  UNL     1      -5.052  13.359  20.233  1.00  0.00     0.055 C 
BRANCH  30  32
HETATM   32  C30 UNL     1      -3.064  14.249  19.011  1.00  0.00     0.171 C 
HETATM   33  O3  UNL     1      -3.314  15.306  18.461  1.00  0.00    -0.646 OA
BRANCH  32  34
HETATM   34  O4  UNL     1      -1.902  14.033  19.649  1.00  0.00    -0.773 OA
HETATM   35  H44 UNL     1      -1.359  14.811  19.408  1.00  0.00     0.167 HD
ENDBRANCH  32  34
ENDBRANCH  30  32
ENDBRANCH  27  29
ENDBRANCH  26  27
ENDBRANCH  24  26
ENDBRANCH   1  24
TORSDOF 6
ENDMDL
