MODEL 1
REMARK minimizedAffinity -8.29490471
REMARK CNNscore 0.789897323
REMARK CNNaffinity 7.7866416
REMARK  11 active torsions:
REMARK  status: ('A' for Active; 'I' for Inactive)
REMARK    1  A    between atoms: C2_2  and  C4_4 
REMARK    2  A    between atoms: C4_4  and  C6_6 
REMARK    3  A    between atoms: C7_8  and  C8_9 
REMARK    4  A    between atoms: C8_9  and  O2_11 
REMARK    5  A    between atoms: C8_9  and  C10_12 
REMARK    6  A    between atoms: C13_15  and  O3_16 
REMARK    7  A    between atoms: C17_21  and  C18_22 
REMARK    8  A    between atoms: C18_22  and  C19_23 
REMARK    9  A    between atoms: C22_26  and  O5_27 
REMARK   10  A    between atoms: C31_36  and  O6_37 
REMARK   11  A    between atoms: C32_38  and  O7_39 
ROOT
HETATM    1  C10 UNL     1      -2.105  48.711 -15.566  1.00  0.00     0.034 C 
HETATM    2  C11 UNL     1      -2.676  50.102 -15.132  1.00  0.00     0.012 C 
HETATM    3  C12 UNL     1      -3.164  50.825 -16.401  1.00  0.00     0.044 C 
HETATM    4  C13 UNL     1      -3.192  49.725 -17.459  1.00  0.00     0.089 C 
HETATM    5  C14 UNL     1      -3.239  50.035 -18.938  1.00  0.00    -0.037 C 
HETATM    6  C15 UNL     1      -3.187  51.279 -19.440  1.00  0.00     0.057 C 
HETATM    7  C16 UNL     1      -3.095  51.533 -20.900  1.00  0.00     0.160 C 
HETATM    8  O4  UNL     1      -3.262  52.683 -21.302  1.00  0.00    -0.292 OA
HETATM    9  C17 UNL     1      -2.761  50.358 -21.832  1.00  0.00     0.043 C 
HETATM   10  C25 UNL     1      -3.230  50.619 -23.303  1.00  0.00     0.034 C 
HETATM   11  C26 UNL     1      -2.898  49.401 -24.201  1.00  0.00     0.008 C 
HETATM   12  C27 UNL     1      -3.513  48.098 -23.707  1.00  0.00     0.001 C 
HETATM   13  C28 UNL     1      -3.251  47.861 -22.219  1.00  0.00     0.011 C 
HETATM   14  C29 UNL     1      -3.576  49.098 -21.325  1.00  0.00    -0.015 C 
HETATM   15  C30 UNL     1      -5.140  49.344 -21.471  1.00  0.00     0.045 C 
HETATM   16  C31 UNL     1      -5.586  50.620 -22.182  1.00  0.00     0.148 C 
HETATM   17  C32 UNL     1      -4.725  51.033 -23.387  1.00  0.00     0.152 C 
HETATM   18  C33 UNL     1      -3.300  48.773 -19.804  1.00  0.00     0.027 C 
HETATM   19  C34 UNL     1      -2.120  47.831 -19.460  1.00  0.00     0.011 C 
HETATM   20  C35 UNL     1      -1.969  47.576 -17.940  1.00  0.00     0.014 C 
HETATM   21  C36 UNL     1      -1.918  48.885 -17.115  1.00  0.00    -0.002 C 
HETATM   22  C37 UNL     1      -0.606  49.645 -17.443  1.00  0.00     0.019 C 
ENDROOT
BRANCH   1  23
HETATM   23  C8  UNL     1      -0.925  48.236 -14.659  1.00  0.00     0.087 C 
HETATM   24  C9  UNL     1       0.349  47.957 -15.470  1.00  0.00     0.049 C 
BRANCH  23  25
HETATM   25  C7  UNL     1      -1.370  47.024 -13.846  1.00  0.00     0.185 A 
HETATM   26  C6  UNL     1      -1.060  45.585 -14.204  1.00  0.00     0.158 A 
HETATM   27  O1  UNL     1      -0.299  46.299 -13.215  1.00  0.00    -0.372 OA
BRANCH  26  28
HETATM   28  C4  UNL     1      -1.892  44.456 -13.646  1.00  0.00     0.017 C 
HETATM   29  C5  UNL     1      -0.974  43.327 -13.164  1.00  0.00     0.013 C 
BRANCH  28  30
HETATM   30  C2  UNL     1      -2.966  44.006 -14.674  1.00  0.00    -0.016 C 
HETATM   31  C1  UNL     1      -4.286  44.775 -14.570  1.00  0.00     0.010 C 
HETATM   32  C3  UNL     1      -2.433  44.094 -16.109  1.00  0.00     0.010 C 
ENDBRANCH  28  30
ENDBRANCH  26  28
ENDBRANCH  23  25
BRANCH  23  33
HETATM   33  O2  UNL     1      -0.599  49.258 -13.713  1.00  0.00    -0.387 OA
HETATM   34  H17 UNL     1       0.028  48.857 -13.084  1.00  0.00     0.210 HD
ENDBRANCH  23  33
ENDBRANCH   1  23
BRANCH   4  35
HETATM   35  O3  UNL     1      -4.378  48.958 -17.186  1.00  0.00    -0.384 OA
HETATM   36  H23 UNL     1      -5.141  49.526 -17.394  1.00  0.00     0.211 HD
ENDBRANCH   4  35
BRANCH   9  37
HETATM   37  C18 UNL     1      -1.197  50.180 -21.740  1.00  0.00     0.057 C 
BRANCH  37  38
HETATM   38  C19 UNL     1      -0.320  51.423 -21.765  1.00  0.00    -0.057 A 
HETATM   39  C20 UNL     1      -0.047  52.097 -22.964  1.00  0.00     0.010 A 
HETATM   40  C21 UNL     1       0.741  53.250 -22.972  1.00  0.00     0.037 A 
HETATM   41  C22 UNL     1       1.251  53.746 -21.781  1.00  0.00     0.065 A 
HETATM   42  C23 UNL     1       0.980  53.111 -20.577  1.00  0.00     0.037 A 
HETATM   43  C24 UNL     1       0.190  51.958 -20.571  1.00  0.00     0.010 A 
BRANCH  41  44
HETATM   44  O5  UNL     1       2.014  54.874 -21.837  1.00  0.00    -0.361 OA
HETATM   45  H29 UNL     1       2.320  55.086 -20.940  1.00  0.00     0.217 HD
ENDBRANCH  41  44
ENDBRANCH  37  38
ENDBRANCH   9  37
BRANCH  16  46
HETATM   46  O6  UNL     1      -6.954  50.473 -22.581  1.00  0.00    -0.393 OA
HETATM   47  H42 UNL     1      -6.906  50.239 -23.532  1.00  0.00     0.210 HD
ENDBRANCH  16  46
BRANCH  17  48
HETATM   48  O7  UNL     1      -5.354  50.544 -24.583  1.00  0.00    -0.393 OA
HETATM   49  H44 UNL     1      -4.968  51.045 -25.325  1.00  0.00     0.210 HD
ENDBRANCH  17  48
TORSDOF 11
ENDMDL
