MODEL 1
REMARK minimizedAffinity -7.91794538
REMARK  7 active torsions:
REMARK  status: ('A' for Active; 'I' for Inactive)
REMARK    1  A    between atoms: N1_2  and  C2_3 
REMARK    2  A    between atoms: C2_3  and  C3_4 
REMARK    3  A    between atoms: C3_4  and  O1_5 
REMARK    4  A    between atoms: O1_5  and  C4_6 
REMARK    5  A    between atoms: C4_6  and  C5_8 
REMARK    6  A    between atoms: C19_23  and  C21_25 
REMARK    7  A    between atoms: C21_25  and  O5_27 
ROOT
HETATM    1  C5  UNL     1      -9.230   5.749  13.087  1.00  0.00     0.085 C 
HETATM    2  C6  UNL     1      -8.034   5.438  13.628  1.00  0.00    -0.070 C 
HETATM    3  C7  UNL     1      -7.454   6.005  14.904  1.00  0.00     0.035 C 
HETATM    4  C8  UNL     1      -6.060   6.597  14.671  1.00  0.00     0.010 C 
HETATM    5  C9  UNL     1      -5.091   5.601  13.989  1.00  0.00     0.006 C 
HETATM    6  C10 UNL     1      -5.740   5.091  12.678  1.00  0.00     0.068 C 
HETATM    7  C11 UNL     1      -4.806   4.186  11.885  1.00  0.00     0.132 C 
HETATM    8  O3  UNL     1      -5.209   3.203  11.261  1.00  0.00    -0.298 OA
HETATM    9  C12 UNL     1      -3.370   4.636  11.744  1.00  0.00     0.085 C 
HETATM   10  C13 UNL     1      -2.773   5.024  13.105  1.00  0.00     0.019 C 
HETATM   11  C14 UNL     1      -3.622   6.161  13.789  1.00  0.00    -0.034 C 
HETATM   12  C15 UNL     1      -3.646   7.467  12.960  1.00  0.00     0.016 C 
HETATM   13  C16 UNL     1      -3.016   6.470  15.185  1.00  0.00     0.010 C 
HETATM   14  C17 UNL     1      -1.520   6.749  15.164  1.00  0.00     0.002 C 
HETATM   15  C18 UNL     1      -0.743   5.601  14.534  1.00  0.00     0.020 C 
HETATM   16  C19 UNL     1      -1.215   5.234  13.101  1.00  0.00     0.049 C 
HETATM   17  C20 UNL     1      -0.485   3.915  12.737  1.00  0.00     0.026 C 
HETATM   18  C23 UNL     1      -7.123   4.433  12.925  1.00  0.00     0.022 C 
HETATM   19  C24 UNL     1      -7.081   3.118  13.722  1.00  0.00     0.015 C 
ENDROOT
BRANCH   1  20
HETATM   20  C4  UNL     1     -10.241   6.701  13.611  1.00  0.00     0.283 C 
HETATM   21  O2  UNL     1     -10.468   6.953  14.780  1.00  0.00    -0.260 OA
BRANCH  20  22
HETATM   22  O1  UNL     1     -10.865   7.257  12.539  1.00  0.00    -0.316 OA
BRANCH  22  23
HETATM   23  C3  UNL     1     -12.086   7.941  12.868  1.00  0.00     0.209 C 
BRANCH  23  24
HETATM   24  C2  UNL     1     -11.845   9.454  12.784  1.00  0.00     0.295 C 
BRANCH  24  25
HETATM   25  N1  UNL     1     -12.644  10.054  11.706  1.00  0.00     0.081 N 
HETATM   26  C1  UNL     1     -13.749  10.834  12.243  1.00  0.00     0.306 C 
HETATM   27  H4  UNL     1     -12.037  10.657  11.149  1.00  0.00     0.315 HD
ENDBRANCH  24  25
ENDBRANCH  23  24
ENDBRANCH  22  23
ENDBRANCH  20  22
ENDBRANCH   1  20
BRANCH  16  28
HETATM   28  C21 UNL     1      -0.703   6.298  12.110  1.00  0.00     0.267 C 
HETATM   29  O4  UNL     1      -0.653   7.500  12.337  1.00  0.00    -0.264 OA
BRANCH  28  30
HETATM   30  O5  UNL     1      -0.283   5.733  10.944  1.00  0.00    -0.326 OA
HETATM   31  C22 UNL     1       0.760   6.451  10.282  1.00  0.00     0.213 C 
ENDBRANCH  28  30
ENDBRANCH  16  28
TORSDOF 7
ENDMDL
