MODEL 1
REMARK minimizedAffinity -9.49911022
REMARK  4 active torsions:
REMARK  status: ('A' for Active; 'I' for Inactive)
REMARK    1  A    between atoms: C4_4  and  C5_5 
REMARK    2  A    between atoms: C5_5  and  C6_6 
REMARK    3  A    between atoms: C6_6  and  C7_7 
REMARK    4  A    between atoms: C7_7  and  C9_9 
ROOT
HETATM    1  C9  UNL     1      -4.994  47.767 -22.747  1.00  0.00    -0.002 C 
HETATM    2  C10 UNL     1      -6.315  48.300 -23.349  1.00  0.00     0.006 C 
HETATM    3  C11 UNL     1      -5.960  49.443 -24.298  1.00  0.00     0.011 C 
HETATM    4  C12 UNL     1      -4.427  49.363 -24.543  1.00  0.00    -0.032 C 
HETATM    5  C13 UNL     1      -4.231  48.280 -25.641  1.00  0.00     0.016 C 
HETATM    6  C14 UNL     1      -3.887  50.782 -25.010  1.00  0.00     0.004 C 
HETATM    7  C15 UNL     1      -3.048  50.849 -26.310  1.00  0.00     0.007 C 
HETATM    8  C16 UNL     1      -1.577  50.510 -26.131  1.00  0.00     0.007 C 
HETATM    9  C17 UNL     1      -0.836  51.291 -25.034  1.00  0.00     0.010 C 
HETATM   10  C18 UNL     1       0.234  52.328 -25.507  1.00  0.00     0.018 C 
HETATM   11  C19 UNL     1       1.453  51.605 -26.109  1.00  0.00     0.023 C 
HETATM   12  C20 UNL     1      -0.293  53.340 -26.536  1.00  0.00     0.023 C 
HETATM   13  C21 UNL     1       0.736  53.102 -24.269  1.00  0.00     0.135 C 
HETATM   14  O1  UNL     1       1.326  54.180 -24.363  1.00  0.00    -0.297 OA
HETATM   15  C22 UNL     1       0.559  52.435 -22.920  1.00  0.00     0.080 C 
HETATM   16  C23 UNL     1      -0.908  52.110 -22.644  1.00  0.00     0.018 C 
HETATM   17  C24 UNL     1      -1.705  51.884 -23.925  1.00  0.00    -0.026 A 
HETATM   18  C25 UNL     1      -2.733  52.958 -24.229  1.00  0.00     0.021 A 
HETATM   19  C26 UNL     1      -3.209  51.564 -23.880  1.00  0.00    -0.027 A 
HETATM   20  C27 UNL     1      -3.936  51.453 -22.572  1.00  0.00     0.011 C 
HETATM   21  C28 UNL     1      -3.982  50.027 -22.045  1.00  0.00     0.011 C 
HETATM   22  C29 UNL     1      -3.944  48.888 -23.106  1.00  0.00    -0.032 C 
HETATM   23  C30 UNL     1      -2.518  48.304 -23.171  1.00  0.00     0.016 C 
ENDROOT
BRANCH   1  24
HETATM   24  C7  UNL     1      -5.185  47.292 -21.273  1.00  0.00    -0.014 C 
HETATM   25  C8  UNL     1      -5.256  48.441 -20.268  1.00  0.00     0.010 C 
BRANCH  24  26
HETATM   26  C6  UNL     1      -4.110  46.264 -20.822  1.00  0.00     0.008 C 
BRANCH  26  27
HETATM   27  C5  UNL     1      -2.666  46.781 -20.809  1.00  0.00     0.028 C 
BRANCH  27  28
HETATM   28  C4  UNL     1      -2.336  47.375 -19.465  1.00  0.00    -0.025 C 
HETATM   29  C2  UNL     1      -1.547  48.433 -19.190  1.00  0.00    -0.091 C 
HETATM   30  C1  UNL     1      -1.346  48.885 -17.765  1.00  0.00     0.042 C 
HETATM   31  C3  UNL     1      -0.814  49.265 -20.206  1.00  0.00     0.042 C 
ENDBRANCH  27  28
ENDBRANCH  26  27
ENDBRANCH  24  26
ENDBRANCH   1  24
TORSDOF 4
ENDMDL
