MODEL 1
REMARK minimizedAffinity -9.98195839
REMARK  7 active torsions:
REMARK  status: ('A' for Active; 'I' for Inactive)
REMARK    1  A    between atoms: C2_2  and  C4_4 
REMARK    2  A    between atoms: C4_4  and  C6_6 
REMARK    3  A    between atoms: C7_7  and  C8_8 
REMARK    4  A    between atoms: C8_8  and  C10_10 
REMARK    5  A    between atoms: C17_17  and  O1_18 
REMARK    6  A    between atoms: C22_23  and  O2_24 
REMARK    7  A    between atoms: C24_26  and  O3_27 
ROOT
HETATM    1  C10 UNL     1      -5.124   5.712  13.119  1.00  0.00     0.004 C 
HETATM    2  C11 UNL     1      -5.630   7.116  13.502  1.00  0.00     0.007 C 
HETATM    3  C12 UNL     1      -4.403   8.037  13.478  1.00  0.00     0.009 C 
HETATM    4  C13 UNL     1      -3.214   7.159  13.041  1.00  0.00     0.038 C 
HETATM    5  C14 UNL     1      -3.622   5.753  13.470  1.00  0.00    -0.008 C 
HETATM    6  C15 UNL     1      -2.752   4.736  12.700  1.00  0.00     0.016 C 
HETATM    7  C16 UNL     1      -1.413   5.330  12.209  1.00  0.00     0.043 C 
HETATM    8  C17 UNL     1      -0.757   6.255  13.261  1.00  0.00     0.103 C 
HETATM    9  C18 UNL     1       0.618   6.978  12.839  1.00  0.00     0.025 C 
HETATM   10  C19 UNL     1       1.497   7.131  14.135  1.00  0.00     0.022 C 
HETATM   11  C20 UNL     1       1.494   6.134  11.856  1.00  0.00     0.018 C 
HETATM   12  C21 UNL     1       1.085   6.165  10.379  1.00  0.00     0.033 C 
HETATM   13  C22 UNL     1       0.805   7.568   9.855  1.00  0.00     0.121 C 
HETATM   14  C23 UNL     1      -0.127   8.364  10.773  1.00  0.00     0.074 C 
HETATM   15  C24 UNL     1       0.393   8.406  12.223  1.00  0.00     0.088 C 
HETATM   16  C25 UNL     1      -0.504   9.238  13.090  1.00  0.00     0.010 C 
HETATM   17  C26 UNL     1      -1.480   8.727  13.851  1.00  0.00     0.013 C 
HETATM   18  C27 UNL     1      -1.882   7.285  13.812  1.00  0.00     0.115 C 
HETATM   19  O4  UNL     1      -2.273   6.863  15.136  1.00  0.00    -0.372 OA
HETATM   20  C28 UNL     1      -3.257   5.816  14.972  1.00  0.00     0.179 C 
ENDROOT
BRANCH   1  21
HETATM   21  C8  UNL     1      -6.031   4.562  13.628  1.00  0.00     0.009 C 
HETATM   22  C9  UNL     1      -6.577   3.601  12.571  1.00  0.00     0.014 C 
BRANCH  21  23
HETATM   23  C7  UNL     1      -7.195   5.087  14.441  1.00  0.00    -0.026 C 
HETATM   24  C6  UNL     1      -8.055   6.020  14.001  1.00  0.00    -0.026 C 
BRANCH  24  25
HETATM   25  C4  UNL     1      -9.217   6.545  14.815  1.00  0.00     0.007 C 
HETATM   26  C5  UNL     1     -10.340   6.976  13.864  1.00  0.00     0.014 C 
BRANCH  25  27
HETATM   27  C2  UNL     1      -8.822   7.676  15.805  1.00  0.00    -0.015 C 
HETATM   28  C1  UNL     1      -8.330   8.961  15.131  1.00  0.00     0.010 C 
HETATM   29  C3  UNL     1      -7.774   7.193  16.815  1.00  0.00     0.010 C 
ENDBRANCH  25  27
ENDBRANCH  24  25
ENDBRANCH  21  23
ENDBRANCH   1  21
BRANCH   8  30
HETATM   30  O1  UNL     1      -0.421   5.297  14.313  1.00  0.00    -0.385 OA
HETATM   31  H28 UNL     1       0.273   4.703  13.985  1.00  0.00     0.210 HD
ENDBRANCH   8  30
BRANCH  15  32
HETATM   32  O3  UNL     1       1.633   9.131  12.220  1.00  0.00    -0.385 OA
HETATM   33  H40 UNL     1       2.083   8.948  11.368  1.00  0.00     0.211 HD
ENDBRANCH  15  32
BRANCH  13  34
HETATM   34  O2  UNL     1       2.048   8.269   9.748  1.00  0.00    -0.395 OA
HETATM   35  H37 UNL     1       2.554   7.855   9.025  1.00  0.00     0.210 HD
ENDBRANCH  13  34
TORSDOF 7
ENDMDL
