MODEL 1
REMARK minimizedAffinity -9.57908916
REMARK  4 active torsions:
REMARK  status: ('A' for Active; 'I' for Inactive)
REMARK    1  A    between atoms: C4_4  and  C5_5 
REMARK    2  A    between atoms: C5_5  and  C6_7 
REMARK    3  A    between atoms: C6_7  and  C7_8 
REMARK    4  A    between atoms: C7_8  and  C8_9 
ROOT
HETATM    1  C8  UNL     1      -1.545  52.267 -26.001  1.00  0.00     0.028 C 
HETATM    2  C9  UNL     1      -2.569  52.056 -27.157  1.00  0.00     0.009 C 
HETATM    3  C10 UNL     1      -3.410  50.823 -26.797  1.00  0.00     0.011 C 
HETATM    4  C11 UNL     1      -3.358  50.759 -25.263  1.00  0.00    -0.032 C 
HETATM    5  C12 UNL     1      -4.302  51.896 -24.736  1.00  0.00     0.016 C 
HETATM    6  C13 UNL     1      -1.858  51.097 -25.035  1.00  0.00     0.001 C 
HETATM    7  C14 UNL     1      -1.592  51.282 -23.542  1.00  0.00     0.006 C 
HETATM    8  C15 UNL     1      -1.962  50.006 -22.765  1.00  0.00     0.006 C 
HETATM    9  C16 UNL     1      -3.407  49.487 -23.031  1.00  0.00     0.003 C 
HETATM   10  C17 UNL     1      -3.838  48.251 -22.123  1.00  0.00    -0.035 C 
HETATM   11  C18 UNL     1      -2.696  47.204 -22.046  1.00  0.00     0.016 C 
HETATM   12  C19 UNL     1      -4.042  48.758 -20.652  1.00  0.00     0.017 C 
HETATM   13  C20 UNL     1      -5.458  49.205 -20.335  1.00  0.00     0.080 C 
HETATM   14  C21 UNL     1      -6.439  48.069 -20.504  1.00  0.00     0.135 C 
HETATM   15  O2  UNL     1      -7.469  48.038 -19.826  1.00  0.00    -0.297 OA
HETATM   16  C22 UNL     1      -6.120  46.991 -21.545  1.00  0.00     0.017 C 
HETATM   17  C23 UNL     1      -5.490  45.791 -20.810  1.00  0.00     0.023 C 
HETATM   18  C24 UNL     1      -7.452  46.476 -22.143  1.00  0.00     0.023 C 
HETATM   19  C25 UNL     1      -5.173  47.584 -22.664  1.00  0.00     0.009 C 
HETATM   20  C26 UNL     1      -5.945  48.561 -23.591  1.00  0.00     0.007 C 
HETATM   21  C27 UNL     1      -5.167  48.948 -24.843  1.00  0.00     0.011 C 
HETATM   22  C28 UNL     1      -3.693  49.352 -24.584  1.00  0.00    -0.032 C 
HETATM   23  C29 UNL     1      -2.840  48.207 -25.206  1.00  0.00     0.016 C 
ENDROOT
BRANCH   1  24
HETATM   24  C7  UNL     1      -0.081  52.341 -26.456  1.00  0.00     0.093 A 
HETATM   25  C30 UNL     1       0.242  52.951 -27.819  1.00  0.00     0.207 A 
HETATM   26  O3  UNL     1       0.234  51.530 -27.599  1.00  0.00    -0.374 OA
BRANCH  24  27
HETATM   27  C6  UNL     1       0.980  52.326 -25.373  1.00  0.00     0.123 C 
BRANCH  27  28
HETATM   28  C5  UNL     1       0.852  53.351 -24.271  1.00  0.00     0.152 C 
HETATM   29  O1  UNL     1       0.915  54.558 -24.528  1.00  0.00    -0.293 OA
BRANCH  28  30
HETATM   30  C4  UNL     1       0.565  52.972 -22.854  1.00  0.00     0.052 C 
HETATM   31  C2  UNL     1       1.012  53.426 -21.666  1.00  0.00    -0.084 C 
HETATM   32  C1  UNL     1       0.540  52.759 -20.394  1.00  0.00     0.043 C 
HETATM   33  C3  UNL     1       1.944  54.579 -21.422  1.00  0.00     0.043 C 
ENDBRANCH  28  30
ENDBRANCH  27  28
ENDBRANCH  24  27
ENDBRANCH   1  24
TORSDOF 4
ENDMDL
