MODEL 1
REMARK minimizedAffinity -8.74786663
REMARK CNNscore 0.57763201
REMARK CNNaffinity 7.19895315
REMARK  13 active torsions:
REMARK  status: ('A' for Active; 'I' for Inactive)
REMARK    1  A    between atoms: C5_6  and  C6_7 
REMARK    2  A    between atoms: C5_6  and  C27_31 
REMARK    3  A    between atoms: C18_19  and  O2_20 
REMARK    4  A    between atoms: C23_25  and  O3_26 
REMARK    5  A    between atoms: C28_33  and  C29_34 
REMARK    6  A    between atoms: C29_34  and  O6_36 
REMARK    7  A    between atoms: C29_34  and  C31_37 
REMARK    8  A    between atoms: C31_37  and  C33_39 
REMARK    9  A    between atoms: C31_37  and  C34_41 
REMARK   10  A    between atoms: C33_39  and  O7_40 
REMARK   11  A    between atoms: C34_41  and  C35_42 
REMARK   12  A    between atoms: C35_42  and  C36_43 
REMARK   13  A    between atoms: C39_48  and  N2_49 
ROOT
HETATM    1  C1  UNL     1     -12.552  12.205  24.606  1.00  0.00     0.010 C 
HETATM    2  C2  UNL     1     -12.238  10.965  23.770  1.00  0.00    -0.014 C 
HETATM    3  C3  UNL     1     -10.891  11.106  23.059  1.00  0.00     0.030 C 
HETATM    4  C4  UNL     1     -10.820  10.288  21.776  1.00  0.00     0.169 C 
HETATM    5  O1  UNL     1     -11.668   9.145  21.846  1.00  0.00    -0.377 OA
HETATM    6  C5  UNL     1     -13.076   9.456  21.834  1.00  0.00     0.094 C 
HETATM    7  C41 UNL     1     -13.358  10.670  22.765  1.00  0.00     0.045 C 
ENDROOT
BRANCH   6   8
HETATM    8  C6  UNL     1     -13.850   8.164  22.284  1.00  0.00     0.035 C 
HETATM    9  C7  UNL     1     -13.842   7.000  21.186  1.00  0.00     0.016 C 
HETATM   10  C8  UNL     1     -13.724   5.692  21.978  1.00  0.00     0.026 C 
HETATM   11  C9  UNL     1     -14.319   4.382  21.500  1.00  0.00     0.013 C 
HETATM   12  C18 UNL     1     -14.319   6.086  23.324  1.00  0.00     0.094 C 
HETATM   13  C10 UNL     1     -13.965   3.299  22.560  1.00  0.00     0.043 C 
HETATM   14  C11 UNL     1     -14.042   3.764  24.008  1.00  0.00    -0.006 C 
HETATM   15  C12 UNL     1     -14.287   5.032  24.377  1.00  0.00    -0.030 C 
HETATM   16  C26 UNL     1     -13.835   2.756  25.077  1.00  0.00     0.161 C 
HETATM   17  C13 UNL     1     -14.646   5.531  25.768  1.00  0.00     0.027 C 
HETATM   18  C14 UNL     1     -13.937   6.880  26.083  1.00  0.00     0.011 C 
HETATM   19  C19 UNL     1     -14.600   4.408  26.884  1.00  0.00    -0.026 C 
HETATM   20  C15 UNL     1     -14.067   7.935  24.948  1.00  0.00     0.014 C 
HETATM   21  C16 UNL     1     -13.515   7.384  23.620  1.00  0.00    -0.002 C 
HETATM   22  C17 UNL     1     -11.992   7.118  23.797  1.00  0.00     0.019 C 
HETATM   23  C20 UNL     1     -14.201   5.014  28.254  1.00  0.00     0.016 C 
HETATM   24  C21 UNL     1     -16.028   3.791  27.022  1.00  0.00     0.013 C 
HETATM   25  C25 UNL     1     -13.611   3.266  26.506  1.00  0.00     0.071 C 
HETATM   26  C22 UNL     1     -16.104   2.612  27.992  1.00  0.00     0.032 C 
HETATM   27  C23 UNL     1     -15.082   1.527  27.670  1.00  0.00     0.119 C 
HETATM   28  C24 UNL     1     -13.668   2.085  27.496  1.00  0.00     0.045 C 
HETATM   29  O4  UNL     1     -13.771   1.566  24.773  1.00  0.00    -0.292 OA
BRANCH  27  30
HETATM   30  O3  UNL     1     -15.088   0.559  28.717  1.00  0.00    -0.396 OA
HETATM   31  H34 UNL     1     -14.756   0.982  29.526  1.00  0.00     0.210 HD
ENDBRANCH  27  30
BRANCH  12  32
HETATM   32  O2  UNL     1     -15.715   6.399  23.163  1.00  0.00    -0.384 OA
HETATM   33  H25 UNL     1     -16.204   5.566  23.054  1.00  0.00     0.211 HD
ENDBRANCH  12  32
ENDBRANCH   6   8
BRANCH   6  34
HETATM   34  C27 UNL     1     -13.440   9.755  20.364  1.00  0.00     0.189 A 
HETATM   35  O5  UNL     1     -13.413  11.154  19.997  1.00  0.00    -0.369 OA
HETATM   36  C28 UNL     1     -12.500  10.323  19.290  1.00  0.00     0.189 A 
BRANCH  36  37
HETATM   37  C29 UNL     1     -12.745  10.167  17.797  1.00  0.00     0.092 C 
HETATM   38  C30 UNL     1     -13.886  11.070  17.282  1.00  0.00     0.049 C 
BRANCH  37  39
HETATM   39  O6  UNL     1     -13.200   8.808  17.623  1.00  0.00    -0.387 OA
HETATM   40  H43 UNL     1     -14.101   8.753  17.988  1.00  0.00     0.210 HD
ENDBRANCH  37  39
BRANCH  37  41
HETATM   41  C31 UNL     1     -11.395  10.343  16.945  1.00  0.00     0.011 C 
HETATM   42  C32 UNL     1     -10.625  11.587  17.459  1.00  0.00     0.020 C 
BRANCH  41  43
HETATM   43  C33 UNL     1     -11.703  10.611  15.438  1.00  0.00     0.176 C 
BRANCH  43  44
HETATM   44  O7  UNL     1     -11.627  11.984  15.074  1.00  0.00    -0.400 OA
HETATM   45  H49 UNL     1     -11.813  12.511  15.881  1.00  0.00     0.209 HD
ENDBRANCH  43  44
ENDBRANCH  41  43
BRANCH  41  46
HETATM   46  C34 UNL     1     -10.512   9.054  17.066  1.00  0.00     0.019 C 
BRANCH  46  47
HETATM   47  C35 UNL     1     -10.018   8.362  15.780  1.00  0.00     0.039 C 
BRANCH  47  48
HETATM   48  C36 UNL     1      -8.575   7.924  15.776  1.00  0.00    -0.054 A 
HETATM   49  C37 UNL     1      -8.186   6.696  16.309  1.00  0.00     0.024 A 
HETATM   50  C38 UNL     1      -6.847   6.350  16.263  1.00  0.00     0.090 A 
HETATM   51  N1  UNL     1      -5.886   7.127  15.722  1.00  0.00    -0.357 N 
HETATM   52  C39 UNL     1      -6.261   8.301  15.195  1.00  0.00     0.077 A 
ATOM     53  H1  UNL     1      -4.909   6.832  15.715  1.00  0.00     0.166 HD
HETATM   54  C40 UNL     1      -7.587   8.728  15.195  1.00  0.00     0.049 A 
BRANCH  52  55
HETATM   55  N2  UNL     1      -5.268   9.097  14.614  1.00  0.00    -0.289 NA
HETATM   56  H56 UNL     1      -5.258  10.009  15.058  1.00  0.00     0.125 HD
HETATM   57  H57 UNL     1      -5.474   9.225  13.629  1.00  0.00     0.125 HD
ENDBRANCH  52  55
ENDBRANCH  47  48
ENDBRANCH  46  47
ENDBRANCH  41  46
ENDBRANCH  37  41
ENDBRANCH  36  37
ENDBRANCH   6  34
TORSDOF 13
ENDMDL
