MODEL 1
REMARK minimizedAffinity -10.0067186
REMARK  7 active torsions:
REMARK  status: ('A' for Active; 'I' for Inactive)
REMARK    1  A    between atoms: C2_2  and  C30_32 
REMARK    2  A    between atoms: C3_3  and  C4_4 
REMARK    3  A    between atoms: C4_4  and  C5_5 
REMARK    4  A    between atoms: C5_5  and  C6_6 
REMARK    5  A    between atoms: C6_6  and  C8_8 
REMARK    6  A    between atoms: C10_10  and  O1_11 
REMARK    7  A    between atoms: C30_32  and  O4_34 
ROOT
HETATM    1  C8  UNL     1      -5.753  48.856 -22.136  1.00  0.00     0.001 C 
HETATM    2  C9  UNL     1      -5.926  47.791 -23.248  1.00  0.00     0.038 C 
HETATM    3  C10 UNL     1      -4.881  48.107 -24.342  1.00  0.00     0.128 C 
HETATM    4  C11 UNL     1      -3.888  49.094 -23.678  1.00  0.00    -0.006 C 
HETATM    5  C12 UNL     1      -2.877  48.212 -22.869  1.00  0.00     0.019 C 
HETATM    6  C13 UNL     1      -3.101  50.034 -24.633  1.00  0.00     0.006 C 
HETATM    7  C14 UNL     1      -2.037  49.311 -25.473  1.00  0.00     0.007 C 
HETATM    8  C15 UNL     1      -1.360  50.287 -26.431  1.00  0.00     0.007 C 
HETATM    9  C16 UNL     1      -0.501  51.293 -25.649  1.00  0.00     0.010 C 
HETATM   10  C17 UNL     1       0.255  52.358 -26.516  1.00  0.00     0.018 C 
HETATM   11  C18 UNL     1       1.720  51.919 -26.705  1.00  0.00     0.023 C 
HETATM   12  C19 UNL     1      -0.371  52.553 -27.913  1.00  0.00     0.023 C 
HETATM   13  C20 UNL     1       0.294  53.736 -25.825  1.00  0.00     0.135 C 
HETATM   14  O2  UNL     1       0.330  54.787 -26.471  1.00  0.00    -0.297 OA
HETATM   15  C21 UNL     1       0.410  53.811 -24.316  1.00  0.00     0.080 C 
HETATM   16  C22 UNL     1      -0.256  52.662 -23.581  1.00  0.00     0.018 C 
HETATM   17  C23 UNL     1      -1.239  51.940 -24.478  1.00  0.00    -0.026 A 
HETATM   18  C24 UNL     1      -2.583  52.581 -24.681  1.00  0.00     0.021 A 
HETATM   19  C25 UNL     1      -2.512  51.272 -23.897  1.00  0.00    -0.027 A 
HETATM   20  C26 UNL     1      -2.730  51.369 -22.381  1.00  0.00     0.011 C 
HETATM   21  C27 UNL     1      -3.995  50.738 -21.778  1.00  0.00     0.011 C 
HETATM   22  C28 UNL     1      -4.853  49.957 -22.780  1.00  0.00    -0.030 C 
HETATM   23  C29 UNL     1      -5.712  50.988 -23.555  1.00  0.00     0.016 C 
ENDROOT
BRANCH   1  24
HETATM   24  C6  UNL     1      -7.002  49.212 -21.276  1.00  0.00    -0.013 C 
HETATM   25  C7  UNL     1      -6.601  49.241 -19.787  1.00  0.00     0.010 C 
BRANCH  24  26
HETATM   26  C5  UNL     1      -8.342  48.450 -21.424  1.00  0.00     0.008 C 
BRANCH  26  27
HETATM   27  C4  UNL     1      -8.512  47.532 -22.634  1.00  0.00     0.028 C 
BRANCH  27  28
HETATM   28  C3  UNL     1      -8.678  48.331 -23.900  1.00  0.00    -0.013 C 
HETATM   29  C2  UNL     1      -9.347  47.984 -25.019  1.00  0.00     0.008 C 
HETATM   30  C1  UNL     1     -10.063  46.685 -25.252  1.00  0.00     0.055 C 
BRANCH  29  31
HETATM   31  C30 UNL     1      -9.420  48.914 -26.178  1.00  0.00     0.171 C 
HETATM   32  O3  UNL     1      -9.192  48.616 -27.338  1.00  0.00    -0.646 OA
BRANCH  31  33
HETATM   33  O4  UNL     1      -9.780  50.168 -25.855  1.00  0.00    -0.773 OA
HETATM   34  H46 UNL     1      -9.773  50.639 -26.716  1.00  0.00     0.167 HD
ENDBRANCH  31  33
ENDBRANCH  29  31
ENDBRANCH  27  28
ENDBRANCH  26  27
ENDBRANCH  24  26
ENDBRANCH   1  24
BRANCH   3  35
HETATM   35  O1  UNL     1      -5.528  48.678 -25.473  1.00  0.00    -0.395 OA
HETATM   36  H17 UNL     1      -6.174  48.032 -25.803  1.00  0.00     0.210 HD
ENDBRANCH   3  35
TORSDOF 7
ENDMDL
