MODEL 1
REMARK minimizedAffinity -9.8289156
REMARK CNNscore 0.511345148
REMARK CNNaffinity 7.94071007
REMARK  12 active torsions:
REMARK  status: ('A' for Active; 'I' for Inactive)
REMARK    1  A    between atoms: C12_13  and  O2_14 
REMARK    2  A    between atoms: C19_21  and  O3_22 
REMARK    3  A    between atoms: C19_21  and  C20_23 
REMARK    4  A    between atoms: C20_23  and  C21_25 
REMARK    5  A    between atoms: C21_25  and  O5_26 
REMARK    6  A    between atoms: O5_26  and  C22_27 
REMARK    7  A    between atoms: C22_27  and  C23_29 
REMARK    8  A    between atoms: C23_29  and  C24_30 
REMARK    9  A    between atoms: C24_30  and  C25_31 
REMARK       I    between atoms: C25_31  and  N1_33 
REMARK   10  A    between atoms: N1_33  and  C26_34 
REMARK   11  A    between atoms: C26_34  and  C27_35 
REMARK   12  A    between atoms: C27_35  and  C28_36 
ROOT
HETATM    1  C1  UNL     1     -10.546  10.974  14.436  1.00  0.00     0.020 C 
HETATM    2  C2  UNL     1     -11.228   9.568  14.459  1.00  0.00    -0.014 C 
HETATM    3  C3  UNL     1     -12.164   9.570  13.213  1.00  0.00     0.022 C 
HETATM    4  C4  UNL     1     -13.401   8.689  13.315  1.00  0.00     0.084 C 
HETATM    5  C5  UNL     1     -14.138   8.939  14.604  1.00  0.00     0.149 C 
HETATM    6  O1  UNL     1     -15.358   8.842  14.697  1.00  0.00    -0.293 OA
HETATM    7  C6  UNL     1     -13.334   9.194  15.820  1.00  0.00     0.053 C 
HETATM    8  C7  UNL     1     -12.013   9.429  15.753  1.00  0.00    -0.068 C 
HETATM    9  C8  UNL     1     -11.190   9.529  17.012  1.00  0.00     0.035 C 
HETATM   10  C9  UNL     1     -10.137   8.431  17.015  1.00  0.00     0.010 C 
HETATM   11  C10 UNL     1      -9.267   8.360  15.735  1.00  0.00    -0.002 C 
HETATM   12  C11 UNL     1     -10.080   8.490  14.392  1.00  0.00     0.031 C 
HETATM   13  C12 UNL     1     -10.419   7.094  13.821  1.00  0.00     0.124 C 
HETATM   14  C13 UNL     1      -9.145   6.270  13.489  1.00  0.00     0.045 C 
HETATM   15  C14 UNL     1      -7.929   6.543  14.418  1.00  0.00     0.001 C 
HETATM   16  C15 UNL     1      -6.966   7.565  13.746  1.00  0.00     0.019 C 
HETATM   17  C16 UNL     1      -8.465   7.040  15.777  1.00  0.00     0.002 C 
HETATM   18  C17 UNL     1      -7.251   6.999  16.701  1.00  0.00     0.009 C 
HETATM   19  C18 UNL     1      -6.409   5.816  16.185  1.00  0.00     0.047 C 
HETATM   20  C19 UNL     1      -7.110   5.292  14.896  1.00  0.00     0.128 C 
ENDROOT
BRANCH  20  21
HETATM   21  O3  UNL     1      -7.970   4.239  15.348  1.00  0.00    -0.381 OA
HETATM   22  H27 UNL     1      -8.375   3.818  14.570  1.00  0.00     0.211 HD
ENDBRANCH  20  21
BRANCH  20  23
HETATM   23  C20 UNL     1      -6.087   4.745  13.864  1.00  0.00     0.185 C 
HETATM   24  O4  UNL     1      -4.929   5.166  13.799  1.00  0.00    -0.292 OA
BRANCH  23  25
HETATM   25  C21 UNL     1      -6.581   3.718  12.852  1.00  0.00     0.260 C 
BRANCH  25  26
HETATM   26  O5  UNL     1      -5.738   3.655  11.703  1.00  0.00    -0.314 OA
BRANCH  26  27
HETATM   27  C22 UNL     1      -5.132   2.449  11.526  1.00  0.00     0.259 C 
HETATM   28  O6  UNL     1      -5.671   1.473  11.022  1.00  0.00    -0.265 OA
BRANCH  27  29
HETATM   29  C23 UNL     1      -3.753   2.414  12.147  1.00  0.00     0.120 C 
BRANCH  29  30
HETATM   30  C24 UNL     1      -2.603   2.480  11.148  1.00  0.00     0.112 C 
BRANCH  30  31
HETATM   31  C25 UNL     1      -1.545   3.482  11.562  1.00  0.00     0.218 C 
HETATM   32  O7  UNL     1      -0.391   3.449  11.152  1.00  0.00    -0.274 OA
HETATM   33  N1  UNL     1      -2.015   4.430  12.441  1.00  0.00    -0.361 N 
HETATM   34  H34 UNL     1      -2.969   4.375  12.775  1.00  0.00     0.162 HD
BRANCH  33  35
HETATM   35  C26 UNL     1      -1.153   5.464  12.988  1.00  0.00     0.127 C 
BRANCH  35  36
HETATM   36  C27 UNL     1      -0.879   6.588  11.985  1.00  0.00     0.060 C 
BRANCH  36  37
HETATM   37  C28 UNL     1       0.566   6.673  11.612  1.00  0.00    -0.029 A 
HETATM   38  C29 UNL     1       1.632   6.219  12.365  1.00  0.00     0.096 A 
HETATM   39  N2  UNL     1       2.787   6.477  11.678  1.00  0.00    -0.365 N 
HETATM   40  C30 UNL     1       2.502   7.094  10.482  1.00  0.00     0.042 A 
HETATM   41  H40 UNL     1       3.718   6.251  11.997  1.00  0.00     0.165 HD
HETATM   42  C31 UNL     1       3.360   7.536   9.469  1.00  0.00     0.030 A 
HETATM   43  C35 UNL     1       1.115   7.232  10.413  1.00  0.00    -0.002 A 
HETATM   44  C32 UNL     1       2.782   8.141   8.349  1.00  0.00     0.002 A 
HETATM   45  C33 UNL     1       1.402   8.294   8.249  1.00  0.00     0.001 A 
HETATM   46  C34 UNL     1       0.558   7.846   9.271  1.00  0.00     0.014 A 
ENDBRANCH  36  37
ENDBRANCH  35  36
ENDBRANCH  33  35
ENDBRANCH  30  31
ENDBRANCH  29  30
ENDBRANCH  27  29
ENDBRANCH  26  27
ENDBRANCH  25  26
ENDBRANCH  23  25
ENDBRANCH  20  23
BRANCH  13  47
HETATM   47  O2  UNL     1     -11.208   6.320  14.719  1.00  0.00    -0.395 OA
HETATM   48  H16 UNL     1     -11.907   6.880  15.092  1.00  0.00     0.210 HD
ENDBRANCH  13  47
TORSDOF 12
ENDMDL
