MODEL 1
REMARK minimizedAffinity -8.42117596
REMARK CNNscore 0.481361747
REMARK CNNaffinity 7.52549791
REMARK  12 active torsions:
REMARK  status: ('A' for Active; 'I' for Inactive)
REMARK    1  A    between atoms: C3_3  and  O1_4 
REMARK    2  A    between atoms: N1_14  and  O2_16 
REMARK    3  A    between atoms: O2_16  and  C13_17 
REMARK    4  A    between atoms: C13_17  and  C14_18 
REMARK       I    between atoms: C14_18  and  N2_20 
REMARK    5  A    between atoms: N2_20  and  C15_21 
REMARK    6  A    between atoms: C15_21  and  C16_22 
REMARK    7  A    between atoms: C15_21  and  C27_38 
REMARK       I    between atoms: C16_22  and  N3_24 
REMARK    8  A    between atoms: N3_24  and  C17_25 
REMARK    9  A    between atoms: C17_25  and  C18_26 
REMARK   10  A    between atoms: C17_25  and  C20_30 
REMARK   11  A    between atoms: C18_26  and  C19_27 
REMARK   12  A    between atoms: C19_27  and  O6_29 
ROOT
HETATM    1  C1  UNL     1      -0.730   6.983  13.413  1.00  0.00     0.015 C 
HETATM    2  C2  UNL     1      -1.723   7.475  13.880  1.00  0.00    -0.078 C 
HETATM    3  C3  UNL     1      -2.948   8.090  14.452  1.00  0.00     0.128 C 
HETATM    4  C4  UNL     1      -3.681   8.866  13.356  1.00  0.00     0.052 C 
HETATM    5  C5  UNL     1      -4.527   7.822  12.637  1.00  0.00     0.010 C 
HETATM    6  C6  UNL     1      -4.797   6.691  13.656  1.00  0.00     0.002 C 
HETATM    7  C7  UNL     1      -6.287   6.425  13.954  1.00  0.00    -0.004 C 
HETATM    8  C8  UNL     1      -7.043   5.885  12.737  1.00  0.00     0.010 C 
HETATM    9  C9  UNL     1      -8.448   5.461  13.144  1.00  0.00     0.035 C 
HETATM   10  C10 UNL     1      -9.223   6.565  13.827  1.00  0.00    -0.069 C 
HETATM   11  C11 UNL     1     -10.518   6.748  13.510  1.00  0.00     0.030 C 
HETATM   12  C12 UNL     1     -11.396   7.680  14.278  1.00  0.00     0.032 C 
HETATM   13  N1  UNL     1     -12.693   7.724  14.217  1.00  0.00    -0.271 N 
ATOM     14  H1  UNL     1     -13.268   8.345  14.786  1.00  0.00     0.194 HD
HETATM   15  C30 UNL     1     -10.744   8.593  15.294  1.00  0.00     0.060 C 
HETATM   16  C31 UNL     1      -9.246   8.733  15.080  1.00  0.00     0.020 C 
HETATM   17  C32 UNL     1      -8.507   7.375  14.919  1.00  0.00    -0.016 C 
HETATM   18  C33 UNL     1      -8.577   6.566  16.236  1.00  0.00     0.020 C 
HETATM   19  C34 UNL     1      -7.017   7.678  14.499  1.00  0.00     0.002 C 
HETATM   20  C35 UNL     1      -6.177   8.407  15.574  1.00  0.00     0.007 C 
HETATM   21  C36 UNL     1      -4.967   7.610  16.059  1.00  0.00     0.014 C 
HETATM   22  C37 UNL     1      -4.011   7.057  14.951  1.00  0.00     0.003 C 
HETATM   23  C38 UNL     1      -3.352   5.794  15.563  1.00  0.00     0.020 C 
ENDROOT
BRANCH   3  24
HETATM   24  O1  UNL     1      -2.551   8.982  15.484  1.00  0.00    -0.377 OA
HETATM   25  H2  UNL     1      -1.846   9.543  15.120  1.00  0.00     0.211 HD
ENDBRANCH   3  24
BRANCH  13  26
HETATM   26  O2  UNL     1     -13.211   6.819  13.280  1.00  0.00    -0.271 OA
BRANCH  26  27
HETATM   27  C13 UNL     1     -14.623   6.789  13.403  1.00  0.00     0.303 C 
BRANCH  27  28
HETATM   28  C14 UNL     1     -15.193   5.805  14.428  1.00  0.00     0.244 C 
HETATM   29  O3  UNL     1     -14.975   5.846  15.637  1.00  0.00    -0.271 OA
HETATM   30  N2  UNL     1     -16.052   4.878  13.861  1.00  0.00    -0.346 N 
HETATM   31  H16 UNL     1     -16.261   4.926  12.868  1.00  0.00     0.163 HD
BRANCH  30  32
HETATM   32  C15 UNL     1     -16.715   3.819  14.644  1.00  0.00     0.180 C 
BRANCH  32  33
HETATM   33  C16 UNL     1     -15.770   2.586  14.776  1.00  0.00     0.241 C 
HETATM   34  O4  UNL     1     -14.550   2.676  14.865  1.00  0.00    -0.271 OA
HETATM   35  N3  UNL     1     -16.420   1.368  14.821  1.00  0.00    -0.354 N 
HETATM   36  H18 UNL     1     -17.418   1.414  14.983  1.00  0.00     0.162 HD
BRANCH  35  37
HETATM   37  C17 UNL     1     -15.771   0.084  15.110  1.00  0.00     0.098 C 
BRANCH  37  38
HETATM   38  C18 UNL     1     -15.519  -0.050  16.625  1.00  0.00     0.135 C 
BRANCH  38  39
HETATM   39  C19 UNL     1     -16.738  -0.465  17.396  1.00  0.00     0.141 C 
HETATM   40  O5  UNL     1     -17.899  -0.164  17.173  1.00  0.00    -0.650 OA
BRANCH  39  41
HETATM   41  O6  UNL     1     -16.437  -1.300  18.412  1.00  0.00    -0.776 OA
HETATM   42  H22 UNL     1     -17.305  -1.512  18.809  1.00  0.00     0.167 HD
ENDBRANCH  39  41
ENDBRANCH  38  39
ENDBRANCH  37  38
BRANCH  37  43
HETATM   43  C20 UNL     1     -16.587  -1.111  14.521  1.00  0.00     0.014 C 
HETATM   44  C21 UNL     1     -15.722  -2.150  13.801  1.00  0.00     0.033 C 
HETATM   45  C22 UNL     1     -15.159  -1.633  12.479  1.00  0.00     0.169 C 
HETATM   46  O7  UNL     1     -15.736  -0.395  12.074  1.00  0.00    -0.381 OA
HETATM   47  C23 UNL     1     -17.163  -0.316  12.127  1.00  0.00     0.054 C 
HETATM   48  C24 UNL     1     -17.785  -1.204  11.040  1.00  0.00     0.045 C 
HETATM   49  C25 UNL     1     -17.506   1.148  11.812  1.00  0.00     0.045 C 
HETATM   50  C26 UNL     1     -17.694  -0.694  13.527  1.00  0.00     0.044 C 
ENDBRANCH  37  43
ENDBRANCH  35  37
ENDBRANCH  32  33
BRANCH  32  51
HETATM   51  C27 UNL     1     -17.155   4.379  16.022  1.00  0.00     0.009 C 
HETATM   52  C28 UNL     1     -17.301   3.287  17.090  1.00  0.00     0.012 C 
HETATM   53  C29 UNL     1     -18.494   5.132  15.913  1.00  0.00     0.012 C 
ENDBRANCH  32  51
ENDBRANCH  30  32
ENDBRANCH  27  28
ENDBRANCH  26  27
ENDBRANCH  13  26
TORSDOF 12
ENDMDL
