MODEL 1
REMARK minimizedAffinity -8.05408859
REMARK CNNscore 0.803478301
REMARK CNNaffinity 7.03561068
REMARK  9 active torsions:
REMARK  status: ('A' for Active; 'I' for Inactive)
REMARK    1  A    between atoms: C4_4  and  C5_5 
REMARK    2  A    between atoms: C7_7  and  O1_9 
REMARK    3  A    between atoms: C20_21  and  O2_22 
REMARK    4  A    between atoms: O2_22  and  C21_23 
REMARK    5  A    between atoms: C22_25  and  C23_26 
REMARK    6  A    between atoms: C23_26  and  O4_27 
REMARK    7  A    between atoms: C24_28  and  O5_29 
REMARK    8  A    between atoms: C25_30  and  O6_31 
REMARK    9  A    between atoms: C26_32  and  O7_33 
ROOT
HETATM    1  C5  UNL     1       3.935  58.202  -4.468  1.00  0.00     0.147 C 
HETATM    2  C6  UNL     1       5.076  57.797  -5.432  1.00  0.00     0.074 C 
HETATM    3  C7  UNL     1       4.897  56.382  -6.017  1.00  0.00     0.064 C 
HETATM    4  C8  UNL     1       5.281  55.331  -4.955  1.00  0.00     0.046 C 
HETATM    5  C9  UNL     1       3.432  56.184  -6.459  1.00  0.00     0.058 C 
HETATM    6  C10 UNL     1       2.603  57.469  -6.293  1.00  0.00     0.131 C 
HETATM    7  C11 UNL     1       1.213  57.113  -6.874  1.00  0.00     0.042 C 
HETATM    8  C12 UNL     1       1.412  55.772  -7.666  1.00  0.00    -0.029 C 
HETATM    9  C13 UNL     1       0.843  54.626  -6.748  1.00  0.00     0.016 C 
HETATM   10  C14 UNL     1       0.713  55.665  -9.056  1.00  0.00     0.014 C 
HETATM   11  C15 UNL     1      -0.792  55.974  -8.980  1.00  0.00     0.034 C 
HETATM   12  C16 UNL     1      -1.710  55.099  -9.751  1.00  0.00    -0.022 C 
HETATM   13  C17 UNL     1      -1.420  53.880 -10.235  1.00  0.00    -0.059 C 
HETATM   14  C18 UNL     1      -0.020  53.291 -10.056  1.00  0.00     0.057 C 
HETATM   15  C19 UNL     1       0.301  52.300 -11.179  1.00  0.00     0.024 C 
HETATM   16  C20 UNL     1      -0.510  51.904 -12.167  1.00  0.00     0.116 C 
HETATM   17  C27 UNL     1      -1.915  52.392 -12.192  1.00  0.00     0.194 C 
HETATM   18  O8  UNL     1      -2.583  52.219 -13.215  1.00  0.00    -0.289 OA
HETATM   19  C28 UNL     1      -2.487  52.982 -10.895  1.00  0.00     0.044 C 
HETATM   20  C29 UNL     1      -3.807  53.702 -11.260  1.00  0.00     0.028 C 
HETATM   21  C30 UNL     1      -2.846  51.803  -9.963  1.00  0.00     0.028 C 
HETATM   22  C31 UNL     1       1.153  54.368  -9.865  1.00  0.00     0.032 C 
HETATM   23  C32 UNL     1       1.636  54.818 -11.273  1.00  0.00     0.025 C 
HETATM   24  C33 UNL     1       2.351  53.625  -9.155  1.00  0.00     0.137 C 
HETATM   25  O9  UNL     1       2.469  52.398  -9.223  1.00  0.00    -0.297 OA
HETATM   26  C34 UNL     1       3.412  54.367  -8.344  1.00  0.00     0.089 C 
HETATM   27  C35 UNL     1       2.984  55.747  -7.879  1.00  0.00    -0.021 C 
HETATM   28  C36 UNL     1       3.499  56.795  -8.929  1.00  0.00     0.017 C 
HETATM   29  O10 UNL     1       2.610  57.846  -4.926  1.00  0.00    -0.376 OA
ENDROOT
BRANCH  16  30
HETATM   30  O2  UNL     1      -0.034  51.118 -13.199  1.00  0.00    -0.314 OA
BRANCH  30  31
HETATM   31  C21 UNL     1       0.172  49.736 -12.849  1.00  0.00     0.298 C 
HETATM   32  O3  UNL     1       1.333  49.255 -13.548  1.00  0.00    -0.348 OA
HETATM   33  C22 UNL     1       1.110  48.803 -14.895  1.00  0.00     0.179 C 
HETATM   34  C24 UNL     1       0.135  47.609 -14.944  1.00  0.00     0.180 C 
HETATM   35  C25 UNL     1      -0.723  47.522 -13.673  1.00  0.00     0.183 C 
HETATM   36  C26 UNL     1      -1.103  48.911 -13.162  1.00  0.00     0.205 C 
BRANCH  33  37
HETATM   37  C23 UNL     1       0.681  49.946 -15.831  1.00  0.00     0.198 C 
BRANCH  37  38
HETATM   38  O4  UNL     1      -0.354  49.520 -16.714  1.00  0.00    -0.398 OA
HETATM   39  H32 UNL     1      -0.577  50.286 -17.272  1.00  0.00     0.209 HD
ENDBRANCH  37  38
ENDBRANCH  33  37
BRANCH  34  40
HETATM   40  O5  UNL     1       0.890  46.384 -15.038  1.00  0.00    -0.390 OA
HETATM   41  H34 UNL     1       0.655  45.982 -15.893  1.00  0.00     0.210 HD
ENDBRANCH  34  40
BRANCH  35  42
HETATM   42  O6  UNL     1      -1.932  46.795 -13.962  1.00  0.00    -0.390 OA
HETATM   43  H36 UNL     1      -2.431  46.823 -13.118  1.00  0.00     0.210 HD
ENDBRANCH  35  42
BRANCH  36  44
HETATM   44  O7  UNL     1      -1.936  48.740 -11.999  1.00  0.00    -0.388 OA
HETATM   45  H38 UNL     1      -2.263  49.639 -11.773  1.00  0.00     0.210 HD
ENDBRANCH  36  44
ENDBRANCH  30  31
ENDBRANCH  16  30
BRANCH   3  46
HETATM   46  O1  UNL     1       5.819  56.224  -7.096  1.00  0.00    -0.390 OA
HETATM   47  H14 UNL     1       5.961  55.270  -7.242  1.00  0.00     0.210 HD
ENDBRANCH   3  46
BRANCH   1  48
HETATM   48  C4  UNL     1       3.953  59.692  -4.238  1.00  0.00     0.007 C 
HETATM   49  C2  UNL     1       4.928  60.430  -3.660  1.00  0.00    -0.089 C 
HETATM   50  C1  UNL     1       6.216  59.884  -3.107  1.00  0.00     0.042 C 
HETATM   51  C3  UNL     1       4.789  61.931  -3.536  1.00  0.00     0.042 C 
ENDBRANCH   1  48
TORSDOF 9
ENDMDL
