MODEL 1
REMARK minimizedAffinity -7.25052786
REMARK CNNscore 0.414452881
REMARK CNNaffinity 6.46033859
REMARK  12 active torsions:
REMARK  status: ('A' for Active; 'I' for Inactive)
REMARK    1  A    between atoms: C2_2  and  C3_3 
REMARK    2  A    between atoms: C3_3  and  C5_5 
REMARK    3  A    between atoms: C3_3  and  C20_20 
REMARK    4  A    between atoms: C6_6  and  C7_7 
REMARK    5  A    between atoms: C7_7  and  C9_9 
REMARK    6  A    between atoms: C9_9  and  C10_10 
REMARK    7  A    between atoms: C10_10  and  C11_11 
REMARK    8  A    between atoms: C12_12  and  C14_14 
REMARK    9  A    between atoms: C14_14  and  C15_15 
REMARK   10  A    between atoms: C15_15  and  C16_16 
REMARK   11  A    between atoms: C20_20  and  C21_21 
REMARK   12  A    between atoms: C21_21  and  C22_22 
ROOT
HETATM    1  C3  UNL     1      -2.043  53.615 -10.246  1.00  0.00    -0.010 C 
HETATM    2  C4  UNL     1      -3.501  54.055 -10.532  1.00  0.00     0.024 C 
ENDROOT
BRANCH   1   3
HETATM    3  C2  UNL     1      -2.079  53.008  -8.844  1.00  0.00    -0.024 C 
HETATM    4  C1  UNL     1      -1.939  51.729  -8.469  1.00  0.00     0.008 C 
ENDBRANCH   1   3
BRANCH   1   5
HETATM    5  C5  UNL     1      -1.676  52.573 -11.307  1.00  0.00    -0.017 C 
HETATM    6  C6  UNL     1      -2.355  52.269 -12.428  1.00  0.00    -0.025 C 
BRANCH   6   7
HETATM    7  C7  UNL     1      -1.903  51.223 -13.424  1.00  0.00     0.004 C 
HETATM    8  C8  UNL     1      -2.968  51.077 -14.514  1.00  0.00     0.014 C 
BRANCH   7   9
HETATM    9  C9  UNL     1      -0.530  51.626 -13.997  1.00  0.00     0.012 C 
BRANCH   9  10
HETATM   10  C10 UNL     1       0.076  50.627 -14.991  1.00  0.00     0.028 C 
BRANCH  10  11
HETATM   11  C11 UNL     1      -0.137  51.041 -16.424  1.00  0.00    -0.024 C 
HETATM   12  C12 UNL     1       0.635  51.830 -17.198  1.00  0.00    -0.087 C 
HETATM   13  C13 UNL     1       1.917  52.476 -16.734  1.00  0.00     0.043 C 
BRANCH  12  14
HETATM   14  C14 UNL     1       0.303  52.175 -18.648  1.00  0.00     0.037 C 
BRANCH  14  15
HETATM   15  C15 UNL     1      -0.140  51.032 -19.572  1.00  0.00     0.031 C 
BRANCH  15  16
HETATM   16  C16 UNL     1      -0.191  51.471 -21.013  1.00  0.00    -0.024 C 
HETATM   17  C17 UNL     1       0.532  52.445 -21.599  1.00  0.00    -0.091 C 
HETATM   18  C18 UNL     1       1.506  53.342 -20.885  1.00  0.00     0.042 C 
HETATM   19  C19 UNL     1       0.397  52.721 -23.075  1.00  0.00     0.042 C 
ENDBRANCH  15  16
ENDBRANCH  14  15
ENDBRANCH  12  14
ENDBRANCH  10  11
ENDBRANCH   9  10
ENDBRANCH   7   9
ENDBRANCH   6   7
ENDBRANCH   1   5
BRANCH   1  20
HETATM   20  C20 UNL     1      -1.132  54.875 -10.440  1.00  0.00     0.018 C 
BRANCH  20  21
HETATM   21  C21 UNL     1       0.342  54.588 -10.771  1.00  0.00     0.011 C 
BRANCH  21  22
HETATM   22  C22 UNL     1       1.485  55.289  -9.975  1.00  0.00     0.022 C 
HETATM   23  C23 UNL     1       2.923  55.000 -10.393  1.00  0.00    -0.084 C 
HETATM   24  C24 UNL     1       3.399  53.877 -10.955  1.00  0.00     0.014 C 
HETATM   25  C25 UNL     1       3.876  56.136 -10.073  1.00  0.00     0.034 C 
HETATM   26  C26 UNL     1       3.417  56.961  -8.866  1.00  0.00     0.009 C 
HETATM   27  C27 UNL     1       2.714  56.080  -7.820  1.00  0.00    -0.010 C 
HETATM   28  C28 UNL     1       2.513  56.874  -6.523  1.00  0.00     0.011 C 
HETATM   29  C29 UNL     1       1.397  55.388  -8.394  1.00  0.00    -0.037 C 
HETATM   30  C30 UNL     1       1.301  54.012  -7.698  1.00  0.00     0.016 C 
HETATM   31  C31 UNL     1       0.124  56.186  -8.028  1.00  0.00     0.016 C 
ENDBRANCH  21  22
ENDBRANCH  20  21
ENDBRANCH   1  20
TORSDOF 12
ENDMDL
