MODEL 1
REMARK minimizedAffinity -9.71560192
REMARK  9 active torsions:
REMARK  status: ('A' for Active; 'I' for Inactive)
REMARK    1  A    between atoms: C2_2  and  C30_34 
REMARK    2  A    between atoms: C3_3  and  C4_4 
REMARK    3  A    between atoms: C4_4  and  C5_5 
REMARK    4  A    between atoms: C5_5  and  C6_6 
REMARK    5  A    between atoms: C6_6  and  C8_8 
REMARK    6  A    between atoms: C10_10  and  O1_12 
REMARK    7  A    between atoms: C14_15  and  O2_16 
REMARK    8  A    between atoms: C25_28  and  O4_29 
REMARK    9  A    between atoms: C30_34  and  O5_35 
ROOT
HETATM    1  C8  UNL     1      -0.767  52.253 -21.831  1.00  0.00     0.005 C 
HETATM    2  C9  UNL     1      -0.619  51.884 -23.311  1.00  0.00     0.048 C 
HETATM    3  C10 UNL     1      -2.030  51.410 -23.715  1.00  0.00     0.079 C 
HETATM    4  C11 UNL     1      -2.791  52.576 -24.359  1.00  0.00     0.051 C 
HETATM    5  C12 UNL     1      -2.638  50.896 -22.411  1.00  0.00    -0.030 C 
HETATM    6  C13 UNL     1      -3.909  50.479 -22.188  1.00  0.00    -0.011 C 
HETATM    7  C14 UNL     1      -4.930  50.323 -23.290  1.00  0.00     0.151 C 
HETATM    8  C15 UNL     1      -5.728  49.019 -23.208  1.00  0.00     0.043 C 
HETATM    9  C16 UNL     1      -6.298  48.712 -21.803  1.00  0.00     0.015 C 
HETATM   10  C17 UNL     1      -7.199  47.421 -21.786  1.00  0.00     0.018 C 
HETATM   11  C18 UNL     1      -8.654  47.803 -22.150  1.00  0.00     0.023 C 
HETATM   12  C19 UNL     1      -6.759  46.322 -22.777  1.00  0.00     0.023 C 
HETATM   13  C20 UNL     1      -7.245  46.837 -20.372  1.00  0.00     0.135 C 
HETATM   14  O3  UNL     1      -7.474  45.646 -20.142  1.00  0.00    -0.297 OA
HETATM   15  C21 UNL     1      -7.102  47.808 -19.234  1.00  0.00     0.080 C 
HETATM   16  C22 UNL     1      -5.781  48.562 -19.291  1.00  0.00     0.020 C 
HETATM   17  C23 UNL     1      -5.161  48.762 -20.710  1.00  0.00    -0.004 C 
HETATM   18  C24 UNL     1      -4.125  47.630 -20.938  1.00  0.00     0.019 C 
HETATM   19  C25 UNL     1      -4.449  50.185 -20.780  1.00  0.00     0.092 C 
HETATM   20  C26 UNL     1      -3.424  50.413 -19.633  1.00  0.00     0.044 C 
HETATM   21  C27 UNL     1      -2.354  51.451 -19.984  1.00  0.00     0.017 C 
HETATM   22  C28 UNL     1      -1.622  51.077 -21.283  1.00  0.00    -0.013 C 
HETATM   23  C29 UNL     1      -0.832  49.766 -21.095  1.00  0.00     0.021 C 
ENDROOT
BRANCH   1  24
HETATM   24  C6  UNL     1       0.553  52.641 -21.106  1.00  0.00    -0.013 C 
HETATM   25  C7  UNL     1       1.291  53.844 -21.703  1.00  0.00     0.010 C 
BRANCH  24  26
HETATM   26  C5  UNL     1       0.228  52.882 -19.601  1.00  0.00     0.008 C 
BRANCH  26  27
HETATM   27  C4  UNL     1       1.421  52.873 -18.635  1.00  0.00     0.028 C 
BRANCH  27  28
HETATM   28  C3  UNL     1       1.115  52.353 -17.260  1.00  0.00    -0.022 C 
HETATM   29  C2  UNL     1       1.961  52.277 -16.208  1.00  0.00    -0.064 C 
HETATM   30  C1  UNL     1       3.418  52.660 -16.258  1.00  0.00     0.045 C 
BRANCH  29  31
HETATM   31  C30 UNL     1       1.481  51.788 -14.865  1.00  0.00     0.197 C 
BRANCH  31  32
HETATM   32  O5  UNL     1       0.698  52.792 -14.226  1.00  0.00    -0.397 OA
HETATM   33  H48 UNL     1       0.455  53.449 -14.901  1.00  0.00     0.209 HD
ENDBRANCH  31  32
ENDBRANCH  29  31
ENDBRANCH  27  28
ENDBRANCH  26  27
ENDBRANCH  24  26
ENDBRANCH   1  24
BRANCH   3  34
HETATM   34  O1  UNL     1      -1.929  50.337 -24.637  1.00  0.00    -0.386 OA
HETATM   35  H19 UNL     1      -1.356  50.624 -25.364  1.00  0.00     0.211 HD
ENDBRANCH   3  34
BRANCH   7  36
HETATM   36  O2  UNL     1      -5.798  51.457 -23.219  1.00  0.00    -0.391 OA
HETATM   37  H21 UNL     1      -6.593  51.246 -23.734  1.00  0.00     0.210 HD
ENDBRANCH   7  36
BRANCH  19  38
HETATM   38  O4  UNL     1      -5.480  51.170 -20.523  1.00  0.00    -0.384 OA
HETATM   39  H38 UNL     1      -5.339  51.904 -21.157  1.00  0.00     0.211 HD
ENDBRANCH  19  38
TORSDOF 9
ENDMDL
