MODEL 1
REMARK minimizedAffinity -9.55459499
REMARK  6 active torsions:
REMARK  status: ('A' for Active; 'I' for Inactive)
REMARK    1  A    between atoms: C2_2  and  C30_31 
REMARK    2  A    between atoms: C3_3  and  C4_4 
REMARK    3  A    between atoms: C4_4  and  C5_5 
REMARK    4  A    between atoms: C5_5  and  C6_6 
REMARK    5  A    between atoms: C6_6  and  C8_8 
REMARK    6  A    between atoms: C30_31  and  O3_33 
ROOT
HETATM    1  C8  UNL     1       0.664   5.956  11.808  1.00  0.00    -0.002 C 
HETATM    2  C9  UNL     1       0.753   4.399  11.746  1.00  0.00     0.007 C 
HETATM    3  C10 UNL     1      -0.621   3.840  12.174  1.00  0.00     0.015 C 
HETATM    4  C11 UNL     1      -1.557   5.060  12.146  1.00  0.00    -0.013 C 
HETATM    5  C12 UNL     1      -1.973   5.254  10.644  1.00  0.00     0.021 C 
HETATM    6  C13 UNL     1      -2.876   5.000  12.923  1.00  0.00    -0.070 C 
HETATM    7  C14 UNL     1      -3.658   3.908  12.855  1.00  0.00    -0.022 C 
HETATM    8  C15 UNL     1      -5.095   3.895  13.260  1.00  0.00     0.034 C 
HETATM    9  C16 UNL     1      -5.714   5.309  13.215  1.00  0.00     0.013 C 
HETATM   10  C17 UNL     1      -7.270   5.333  13.461  1.00  0.00     0.018 C 
HETATM   11  C18 UNL     1      -7.981   5.385  12.087  1.00  0.00     0.023 C 
HETATM   12  C19 UNL     1      -7.787   4.079  14.207  1.00  0.00     0.023 C 
HETATM   13  C20 UNL     1      -7.787   6.557  14.238  1.00  0.00     0.135 C 
HETATM   14  O1  UNL     1      -8.927   6.567  14.724  1.00  0.00    -0.297 OA
HETATM   15  C21 UNL     1      -6.947   7.800  14.382  1.00  0.00     0.080 C 
HETATM   16  C22 UNL     1      -5.519   7.696  13.887  1.00  0.00     0.017 C 
HETATM   17  C23 UNL     1      -4.874   6.307  14.067  1.00  0.00    -0.031 C 
HETATM   18  C24 UNL     1      -4.903   5.913  15.570  1.00  0.00     0.016 C 
HETATM   19  C25 UNL     1      -3.341   6.296  13.608  1.00  0.00     0.024 C 
HETATM   20  C26 UNL     1      -2.838   7.525  12.813  1.00  0.00     0.010 C 
HETATM   21  C27 UNL     1      -1.309   7.545  12.546  1.00  0.00     0.011 C 
HETATM   22  C28 UNL     1      -0.604   6.179  12.698  1.00  0.00    -0.029 C 
HETATM   23  C29 UNL     1      -0.177   5.964  14.187  1.00  0.00     0.016 C 
ENDROOT
BRANCH   1  24
HETATM   24  C6  UNL     1       2.015   6.617  12.204  1.00  0.00    -0.014 C 
HETATM   25  C7  UNL     1       1.907   7.453  13.484  1.00  0.00     0.010 C 
BRANCH  24  26
HETATM   26  C5  UNL     1       2.621   7.474  11.062  1.00  0.00     0.008 C 
BRANCH  26  27
HETATM   27  C4  UNL     1       3.692   6.779  10.211  1.00  0.00     0.028 C 
BRANCH  27  28
HETATM   28  C3  UNL     1       3.106   6.276   8.919  1.00  0.00    -0.013 C 
HETATM   29  C2  UNL     1       2.608   6.983   7.883  1.00  0.00     0.008 C 
HETATM   30  C1  UNL     1       2.074   6.294   6.658  1.00  0.00     0.055 C 
BRANCH  29  31
HETATM   31  C30 UNL     1       2.508   8.461   7.906  1.00  0.00     0.171 C 
HETATM   32  O2  UNL     1       3.364   9.269   7.598  1.00  0.00    -0.646 OA
BRANCH  31  33
HETATM   33  O3  UNL     1       1.303   8.870   8.343  1.00  0.00    -0.773 OA
HETATM   34  H46 UNL     1       1.369   9.845   8.300  1.00  0.00     0.167 HD
ENDBRANCH  31  33
ENDBRANCH  29  31
ENDBRANCH  27  28
ENDBRANCH  26  27
ENDBRANCH  24  26
ENDBRANCH   1  24
TORSDOF 6
ENDMDL
