MODEL 1
REMARK minimizedAffinity -7.240201
REMARK CNNscore 0.148975194
REMARK CNNaffinity 6.43883181
REMARK  9 active torsions:
REMARK  status: ('A' for Active; 'I' for Inactive)
REMARK       I    between atoms: N1_1  and  C1_2 
REMARK       I    between atoms: C1_2  and  N2_3 
REMARK    1  A    between atoms: N3_4  and  C2_6 
REMARK    2  A    between atoms: C2_6  and  C3_7 
REMARK    3  A    between atoms: C3_7  and  C4_8 
REMARK    4  A    between atoms: C4_8  and  C5_9 
REMARK    5  A    between atoms: C5_9  and  O1_10 
REMARK    6  A    between atoms: C19_25  and  S1_26 
REMARK    7  A    between atoms: C28_38  and  C29_39 
REMARK    8  A    between atoms: C29_39  and  O6_40 
REMARK    9  A    between atoms: C35_46  and  O7_47 
ROOT
HETATM    1  C2  UNL     1       2.540  12.459  17.964  1.00  0.00     0.171 C 
HETATM    2  O2  UNL     1       1.958  11.783  19.145  1.00  0.00    -0.316 OA
HETATM    3  C11 UNL     1       2.802  11.483  20.181  1.00  0.00     0.072 C 
HETATM    4  C12 UNL     1       2.457  11.999  21.431  1.00  0.00     0.037 C 
HETATM    5  C13 UNL     1       3.380  11.962  22.479  1.00  0.00     0.010 C 
HETATM    6  C14 UNL     1       4.643  11.382  22.293  1.00  0.00    -0.058 C 
HETATM    7  C15 UNL     1       4.895  10.713  21.089  1.00  0.00     0.010 C 
HETATM    8  C16 UNL     1       3.981  10.766  20.030  1.00  0.00     0.037 C 
HETATM    9  C17 UNL     1       5.676  11.495  23.387  1.00  0.00     0.040 C 
HETATM   10  C18 UNL     1       7.156  11.674  23.002  1.00  0.00     0.028 C 
HETATM   11  C19 UNL     1       7.653  12.935  22.206  1.00  0.00     0.140 C 
HETATM   12  C20 UNL     1       6.729  14.196  22.249  1.00  0.00     0.053 C 
HETATM   13  C21 UNL     1       7.132  15.078  23.472  1.00  0.00    -0.013 C 
HETATM   14  C22 UNL     1       7.914  16.150  23.216  1.00  0.00    -0.050 C 
HETATM   15  C23 UNL     1       8.709  16.074  21.926  1.00  0.00     0.043 C 
HETATM   16  C24 UNL     1       7.708  16.209  20.793  1.00  0.00     0.016 C 
HETATM   17  C25 UNL     1       7.308  17.703  20.604  1.00  0.00     0.039 C 
HETATM   18  C26 UNL     1       7.593  18.772  21.716  1.00  0.00     0.123 C 
HETATM   19  C27 UNL     1       8.990  19.452  21.615  1.00  0.00     0.039 C 
HETATM   20  C28 UNL     1       9.194  20.881  22.221  1.00  0.00     0.023 C 
HETATM   21  C30 UNL     1      10.247  20.928  23.368  1.00  0.00     0.101 C 
HETATM   22  C31 UNL     1       9.784  20.237  24.574  1.00  0.00    -0.101 C 
HETATM   23  C32 UNL     1       9.212  19.575  25.395  1.00  0.00    -0.066 C 
HETATM   24  C33 UNL     1       8.261  18.730  26.054  1.00  0.00     0.029 C 
HETATM   25  C34 UNL     1       7.939  18.988  27.392  1.00  0.00     0.057 C 
HETATM   26  C35 UNL     1       6.860  18.329  27.966  1.00  0.00     0.067 C 
HETATM   27  C36 UNL     1       6.079  17.463  27.212  1.00  0.00     0.037 C 
HETATM   28  C37 UNL     1       6.409  17.207  25.874  1.00  0.00     0.014 C 
HETATM   29  C38 UNL     1       7.551  17.772  25.285  1.00  0.00    -0.006 C 
HETATM   30  C39 UNL     1       7.968  17.524  23.836  1.00  0.00     0.185 C 
HETATM   31  O8  UNL     1       7.169  18.418  23.034  1.00  0.00    -0.371 OA
HETATM   32  C40 UNL     1       6.472  15.296  21.118  1.00  0.00     0.104 A 
HETATM   33  C41 UNL     1       5.517  14.884  20.010  1.00  0.00     0.082 A 
HETATM   34  C42 UNL     1       5.912  14.101  18.937  1.00  0.00     0.010 C 
HETATM   35  C43 UNL     1       4.956  13.382  18.207  1.00  0.00     0.011 C 
HETATM   36  C44 UNL     1       3.576  13.521  18.446  1.00  0.00    -0.003 C 
HETATM   37  C45 UNL     1       3.188  14.512  19.360  1.00  0.00     0.011 C 
HETATM   38  C46 UNL     1       4.143  15.160  20.149  1.00  0.00     0.010 C 
HETATM   39 NA1  UNL     1       4.852  14.604  20.667  1.00  0.00    -0.398 Na
ATOM     40  HA1 UNL     1       3.941  14.217  20.914  1.00  0.00     0.155 HD
ENDROOT
BRANCH   1  41
HETATM   41  N3  UNL     1       3.032  11.507  16.951  1.00  0.00    -0.331 N 
HETATM   42  C1  UNL     1       2.630  10.308  16.811  1.00  0.00     0.146 C 
HETATM   43  N1  UNL     1       1.683   9.590  17.450  1.00  0.00    -0.376 N 
HETATM   44  N2  UNL     1       3.176   9.539  15.837  1.00  0.00    -0.274 NA
HETATM   45  H1  UNL     1       1.233  10.025  18.244  1.00  0.00     0.158 HD
HETATM   46  H2  UNL     1       1.920   8.616  17.597  1.00  0.00     0.158 HD
HETATM   47  H3  UNL     1       2.449   9.116  15.271  1.00  0.00     0.127 HD
HETATM   48  H4  UNL     1       3.747  10.127  15.233  1.00  0.00     0.127 HD
ATOM     49  H3  UNL     1       3.755  11.836  16.311  1.00  0.00     0.165 HD
ENDBRANCH   1  41
BRANCH   1  50
HETATM   50  C3  UNL     1       1.289  13.182  17.356  1.00  0.00     0.070 C 
BRANCH  50  51
HETATM   51  C4  UNL     1      -0.026  12.374  17.210  1.00  0.00     0.043 C 
BRANCH  51  52
HETATM   52  C5  UNL     1      -1.082  12.445  18.349  1.00  0.00     0.058 C 
HETATM   53  C6  UNL     1      -1.506  11.064  18.888  1.00  0.00     0.038 C 
HETATM   54  C7  UNL     1      -2.220  10.192  17.853  1.00  0.00     0.003 C 
HETATM   55  C8  UNL     1      -3.054  10.989  16.852  1.00  0.00     0.000 C 
HETATM   56  C9  UNL     1      -3.516  12.312  17.437  1.00  0.00     0.003 C 
HETATM   57  C10 UNL     1      -2.356  13.203  17.890  1.00  0.00     0.038 C 
BRANCH  52  58
HETATM   58  O1  UNL     1      -0.540  13.224  19.421  1.00  0.00    -0.390 OA
HETATM   59  H9  UNL     1       0.087  12.637  19.894  1.00  0.00     0.210 HD
ENDBRANCH  52  58
ENDBRANCH  51  52
ENDBRANCH  50  51
ENDBRANCH   1  50
BRANCH  11  60
HETATM   60  S1  UNL     1       8.485  12.412  20.692  1.00  0.00     0.106 S 
HETATM   61  O3  UNL     1       9.024  13.672  20.173  1.00  0.00    -0.595 OA
HETATM   62  O4  UNL     1       9.514  11.464  21.105  1.00  0.00    -0.595 OA
HETATM   63  O5  UNL     1       7.447  11.845  19.837  1.00  0.00    -0.595 OA
ENDBRANCH  11  60
BRANCH  20  64
HETATM   64  C29 UNL     1       7.908  21.634  22.584  1.00  0.00     0.169 C 
BRANCH  64  65
HETATM   65  O6  UNL     1       8.205  22.991  22.905  1.00  0.00    -0.400 OA
HETATM   66  H42 UNL     1       8.422  23.446  22.073  1.00  0.00     0.209 HD
ENDBRANCH  64  65
ENDBRANCH  20  64
BRANCH  26  67
HETATM   67  O7  UNL     1       6.494  18.559  29.261  1.00  0.00    -0.361 OA
HETATM   68  H46 UNL     1       7.146  19.158  29.654  1.00  0.00     0.217 HD
ENDBRANCH  26  67
TORSDOF 9
ENDMDL
