MODEL 1
REMARK minimizedAffinity -7.80545902
REMARK CNNscore 0.208758369
REMARK CNNaffinity 7.04676008
REMARK  10 active torsions:
REMARK  status: ('A' for Active; 'I' for Inactive)
REMARK    1  A    between atoms: C2_2  and  C3_3 
REMARK    2  A    between atoms: C5_5  and  S1_6 
REMARK    3  A    between atoms: C14_18  and  C15_19 
REMARK    4  A    between atoms: C15_19  and  O4_20 
REMARK    5  A    between atoms: C21_26  and  O5_27 
REMARK    6  A    between atoms: C33_40  and  C34_41 
REMARK    7  A    between atoms: C33_40  and  N1_49 
REMARK    8  A    between atoms: C34_41  and  C35_42 
REMARK    9  A    between atoms: C35_42  and  C36_43 
REMARK   10  A    between atoms: C36_43  and  O7_44 
REMARK       I    between atoms: C41_51  and  N2_52 
REMARK       I    between atoms: C41_51  and  N3_53 
ROOT
HETATM    1  C3  UNL     1       0.833  13.507  17.359  1.00  0.00     0.019 C 
HETATM    2  C4  UNL     1      -0.213  14.280  16.513  1.00  0.00     0.034 C 
HETATM    3  C5  UNL     1      -1.239  15.113  17.310  1.00  0.00     0.157 C 
HETATM    4  C6  UNL     1      -2.317  14.292  18.114  1.00  0.00     0.121 A 
HETATM    5  C7  UNL     1      -2.901  15.157  19.230  1.00  0.00     0.005 C 
HETATM    6  C8  UNL     1      -4.039  14.801  19.852  1.00  0.00    -0.048 C 
HETATM    7  C9  UNL     1      -4.594  13.436  19.585  1.00  0.00     0.044 C 
HETATM    8  C10 UNL     1      -4.827  13.344  18.079  1.00  0.00     0.019 C 
HETATM    9  C11 UNL     1      -6.015  14.248  17.604  1.00  0.00     0.039 C 
HETATM   10  C12 UNL     1      -6.148  15.664  18.216  1.00  0.00     0.123 C 
HETATM   11  C13 UNL     1      -7.430  16.391  17.735  1.00  0.00     0.039 C 
HETATM   12  C14 UNL     1      -8.765  15.938  18.407  1.00  0.00     0.023 C 
HETATM   13  C16 UNL     1      -9.255  16.915  19.515  1.00  0.00     0.101 C 
HETATM   14  C17 UNL     1      -8.428  16.854  20.724  1.00  0.00    -0.101 C 
HETATM   15  C18 UNL     1      -7.615  16.666  21.591  1.00  0.00    -0.066 C 
HETATM   16  C19 UNL     1      -6.503  16.295  22.421  1.00  0.00     0.029 A 
HETATM   17  C20 UNL     1      -6.669  16.360  23.809  1.00  0.00     0.057 A 
HETATM   18  C21 UNL     1      -5.616  16.024  24.649  1.00  0.00     0.067 A 
HETATM   19  C22 UNL     1      -4.397  15.611  24.129  1.00  0.00     0.037 A 
HETATM   20  C23 UNL     1      -4.226  15.533  22.744  1.00  0.00     0.014 A 
HETATM   21  C24 UNL     1      -5.275  15.854  21.858  1.00  0.00    -0.006 A 
HETATM   22  C25 UNL     1      -5.018  15.839  20.348  1.00  0.00     0.185 C 
HETATM   23  O6  UNL     1      -6.233  15.559  19.638  1.00  0.00    -0.371 OA
HETATM   24  C26 UNL     1      -3.481  13.590  17.275  1.00  0.00     0.115 A 
HETATM   25  C27 UNL     1      -3.030  12.242  16.687  1.00  0.00    -0.035 A 
HETATM   26  C28 UNL     1      -2.825  11.115  17.494  1.00  0.00     0.010 A 
HETATM   27  C29 UNL     1      -2.396   9.901  16.948  1.00  0.00     0.012 A 
HETATM   28  C30 UNL     1      -2.094   9.776  15.579  1.00  0.00    -0.003 A 
HETATM   29  C31 UNL     1      -2.336  10.902  14.770  1.00  0.00     0.012 A 
HETATM   30  C32 UNL     1      -2.815  12.106  15.310  1.00  0.00     0.010 A 
HETATM   31  C33 UNL     1      -1.394   8.477  15.062  1.00  0.00     0.170 C 
HETATM   32  O8  UNL     1       0.090   8.545  15.015  1.00  0.00    -0.316 OA
HETATM   33  C42 UNL     1       0.651   9.648  15.602  1.00  0.00     0.072 C 
HETATM   34  C43 UNL     1       0.761   9.738  16.989  1.00  0.00     0.037 C 
HETATM   35  C44 UNL     1       0.965  10.989  17.568  1.00  0.00     0.010 C 
HETATM   36  C45 UNL     1       1.078  12.127  16.756  1.00  0.00    -0.054 C 
HETATM   37  C46 UNL     1       1.221  11.958  15.367  1.00  0.00     0.010 C 
HETATM   38  C47 UNL     1       1.007  10.713  14.785  1.00  0.00     0.037 C 
HETATM   39 NA1  UNL     1      -3.284  12.475  16.860  1.00  0.00    -0.404 Na
ATOM     40  HA1 UNL     1      -3.412  11.575  16.398  1.00  0.00     0.154 HD
ENDROOT
BRANCH  31  41
HETATM   41  C34 UNL     1      -1.766   8.194  13.566  1.00  0.00     0.070 C 
BRANCH  41  42
HETATM   42  C35 UNL     1      -1.127   9.150  12.541  1.00  0.00     0.043 C 
BRANCH  42  43
HETATM   43  C36 UNL     1      -0.050   8.482  11.679  1.00  0.00     0.058 C 
HETATM   44  C37 UNL     1      -0.276   8.623  10.173  1.00  0.00     0.038 C 
HETATM   45  C38 UNL     1       0.554   7.502   9.550  1.00  0.00     0.003 C 
HETATM   46  C39 UNL     1       0.717   6.439  10.635  1.00  0.00     0.003 C 
HETATM   47  C40 UNL     1      -0.028   6.962  11.862  1.00  0.00     0.038 C 
BRANCH  43  48
HETATM   48  O7  UNL     1       1.239   9.010  12.004  1.00  0.00    -0.390 OA
HETATM   49  H40 UNL     1       1.346   8.938  12.967  1.00  0.00     0.210 HD
ENDBRANCH  43  48
ENDBRANCH  42  43
ENDBRANCH  41  42
ENDBRANCH  31  41
BRANCH  31  50
HETATM   50  N1  UNL     1      -1.953   7.312  15.794  1.00  0.00    -0.336 N 
HETATM   51  C41 UNL     1      -3.163   6.934  15.681  1.00  0.00     0.124 C 
HETATM   52  N2  UNL     1      -4.175   7.408  14.931  1.00  0.00    -0.279 NA
HETATM   53  N3  UNL     1      -3.584   5.857  16.380  1.00  0.00    -0.279 NA
HETATM   54  H49 UNL     1      -3.961   8.316  14.516  1.00  0.00     0.126 HD
HETATM   55  H50 UNL     1      -5.053   7.447  15.435  1.00  0.00     0.126 HD
HETATM   56  H51 UNL     1      -2.782   5.378  16.784  1.00  0.00     0.126 HD
HETATM   57  H52 UNL     1      -4.127   5.224  15.806  1.00  0.00     0.126 HD
ATOM     58  H1  UNL     1      -1.337   6.790  16.417  1.00  0.00     0.165 HD
ENDBRANCH  31  50
BRANCH   1  59
HETATM   59  C2  UNL     1       2.130  14.297  17.641  1.00  0.00     0.005 C 
HETATM   60  C1  UNL     1       3.326  13.484  18.126  1.00  0.00     0.006 C 
ENDBRANCH   1  59
BRANCH   3  61
HETATM   61  S1  UNL     1      -1.939  16.376  16.197  1.00  0.00     0.108 S 
HETATM   62  O1  UNL     1      -0.841  17.341  16.078  1.00  0.00    -0.595 OA
HETATM   63  O2  UNL     1      -3.102  16.904  16.899  1.00  0.00    -0.595 OA
HETATM   64  O3  UNL     1      -2.252  15.649  14.970  1.00  0.00    -0.595 OA
ENDBRANCH   3  61
BRANCH  12  65
HETATM   65  C15 UNL     1      -9.880  15.818  17.354  1.00  0.00     0.169 C 
BRANCH  65  66
HETATM   66  O4  UNL     1     -10.084  17.033  16.639  1.00  0.00    -0.400 OA
HETATM   67  H23 UNL     1      -9.251  17.529  16.634  1.00  0.00     0.209 HD
ENDBRANCH  65  66
ENDBRANCH  12  65
BRANCH  18  68
HETATM   68  O5  UNL     1      -5.813  16.124  25.995  1.00  0.00    -0.361 OA
HETATM   69  H27 UNL     1      -4.942  16.094  26.433  1.00  0.00     0.217 HD
ENDBRANCH  18  68
TORSDOF 10
ENDMDL
