MODEL 1
REMARK minimizedAffinity -10.2488365
REMARK CNNscore 0.652222574
REMARK CNNaffinity 7.49379492
REMARK  13 active torsions:
REMARK  status: ('A' for Active; 'I' for Inactive)
REMARK    1  A    between atoms: C2_2  and  C3_3 
REMARK    2  A    between atoms: C3_3  and  C5_5 
REMARK    3  A    between atoms: C5_5  and  N1_6 
REMARK    4  A    between atoms: C5_5  and  C31_39 
REMARK       I    between atoms: N1_6  and  C6_7 
REMARK    5  A    between atoms: C6_7  and  C7_9 
REMARK    6  A    between atoms: C7_9  and  C8_10 
REMARK    7  A    between atoms: C8_10  and  C9_11 
REMARK    8  A    between atoms: C9_11  and  O3_13 
REMARK    9  A    between atoms: O3_13  and  C10_14 
REMARK   10  A    between atoms: C10_14  and  C11_15 
REMARK   11  A    between atoms: C11_15  and  C12_17 
REMARK   12  A    between atoms: C12_17  and  O5_18 
REMARK   13  A    between atoms: C31_39  and  O9_41 
ROOT
HETATM    1  C12 UNL     1      -6.640  49.736 -22.527  1.00  0.00     0.128 C 
HETATM    2  C13 UNL     1      -7.167  49.565 -21.083  1.00  0.00     0.047 C 
HETATM    3  C14 UNL     1      -5.999  49.940 -20.150  1.00  0.00     0.009 C 
HETATM    4  C15 UNL     1      -4.911  50.469 -21.079  1.00  0.00     0.002 C 
HETATM    5  C16 UNL     1      -3.469  50.493 -20.557  1.00  0.00     0.003 C 
HETATM    6  C17 UNL     1      -3.354  51.351 -19.288  1.00  0.00     0.010 C 
HETATM    7  C18 UNL     1      -1.918  51.414 -18.783  1.00  0.00     0.035 C 
HETATM    8  C19 UNL     1      -0.963  51.881 -19.861  1.00  0.00    -0.067 C 
HETATM    9  C20 UNL     1      -0.141  52.914 -19.612  1.00  0.00     0.053 C 
HETATM   10  C21 UNL     1       0.887  53.341 -20.589  1.00  0.00     0.149 C 
HETATM   11  O6  UNL     1       1.542  54.357 -20.375  1.00  0.00    -0.293 OA
HETATM   12  C22 UNL     1       1.129  52.447 -21.773  1.00  0.00     0.084 C 
HETATM   13  C23 UNL     1      -0.202  51.906 -22.282  1.00  0.00     0.022 C 
HETATM   14  C24 UNL     1      -1.025  51.130 -21.208  1.00  0.00    -0.009 C 
HETATM   15  C25 UNL     1      -0.407  49.728 -21.008  1.00  0.00     0.021 C 
HETATM   16  C26 UNL     1      -2.530  51.062 -21.663  1.00  0.00     0.072 C 
HETATM   17  C27 UNL     1      -2.799  50.358 -23.011  1.00  0.00     0.133 C 
HETATM   18  O7  UNL     1      -1.903  49.926 -23.737  1.00  0.00    -0.297 OA
HETATM   19  C28 UNL     1      -4.250  50.285 -23.469  1.00  0.00     0.091 C 
HETATM   20  C29 UNL     1      -5.095  49.629 -22.372  1.00  0.00     0.005 C 
HETATM   21  C30 UNL     1      -4.641  48.159 -22.205  1.00  0.00     0.019 C 
ENDROOT
BRANCH   1  22
HETATM   22  C11 UNL     1      -7.315  48.860 -23.608  1.00  0.00     0.185 C 
HETATM   23  O4  UNL     1      -8.503  49.081 -23.896  1.00  0.00    -0.292 OA
BRANCH  22  24
HETATM   24  C10 UNL     1      -6.525  47.726 -24.265  1.00  0.00     0.260 C 
BRANCH  24  25
HETATM   25  O3  UNL     1      -5.643  48.181 -25.291  1.00  0.00    -0.314 OA
BRANCH  25  26
HETATM   26  C9  UNL     1      -6.018  47.873 -26.563  1.00  0.00     0.259 C 
HETATM   27  O2  UNL     1      -7.120  47.458 -26.889  1.00  0.00    -0.265 OA
BRANCH  26  28
HETATM   28  C8  UNL     1      -4.881  48.173 -27.497  1.00  0.00     0.120 C 
BRANCH  28  29
HETATM   29  C7  UNL     1      -3.614  48.583 -26.754  1.00  0.00     0.112 C 
BRANCH  29  30
HETATM   30  C6  UNL     1      -2.979  49.775 -27.439  1.00  0.00     0.218 C 
HETATM   31  N1  UNL     1      -1.898  50.294 -26.757  1.00  0.00    -0.346 N 
HETATM   32  H11 UNL     1      -1.849  50.072 -25.768  1.00  0.00     0.163 HD
HETATM   33  O1  UNL     1      -3.379  50.223 -28.510  1.00  0.00    -0.274 OA
BRANCH  31  34
HETATM   34  C5  UNL     1      -1.348  51.604 -27.145  1.00  0.00     0.186 C 
BRANCH  34  35
HETATM   35  C3  UNL     1       0.171  51.507 -27.421  1.00  0.00     0.014 C 
HETATM   36  C4  UNL     1       0.591  52.522 -28.492  1.00  0.00     0.012 C 
BRANCH  35  37
HETATM   37  C2  UNL     1       1.032  51.646 -26.143  1.00  0.00     0.002 C 
HETATM   38  C1  UNL     1       2.446  51.102 -26.306  1.00  0.00     0.005 C 
ENDBRANCH  35  37
ENDBRANCH  34  35
BRANCH  34  39
HETATM   39  C31 UNL     1      -1.691  52.658 -26.075  1.00  0.00     0.163 C 
HETATM   40  O8  UNL     1      -0.979  53.577 -25.704  1.00  0.00    -0.648 OA
BRANCH  39  41
HETATM   41  O9  UNL     1      -2.886  52.455 -25.471  1.00  0.00    -0.775 OA
HETATM   42  H43 UNL     1      -2.952  53.208 -24.844  1.00  0.00     0.167 HD
ENDBRANCH  39  41
ENDBRANCH  34  39
ENDBRANCH  31  34
ENDBRANCH  29  30
ENDBRANCH  28  29
ENDBRANCH  26  28
ENDBRANCH  25  26
ENDBRANCH  24  25
ENDBRANCH  22  24
ENDBRANCH   1  22
BRANCH   1  43
HETATM   43  O5  UNL     1      -6.961  51.097 -22.902  1.00  0.00    -0.381 OA
HETATM   44  H18 UNL     1      -7.080  51.100 -23.874  1.00  0.00     0.211 HD
ENDBRANCH   1  43
TORSDOF 13
ENDMDL
