MODEL 1
REMARK minimizedAffinity -7.92513657
REMARK CNNscore 0.283597976
REMARK CNNaffinity 6.3276782
REMARK  15 active torsions:
REMARK  status: ('A' for Active; 'I' for Inactive)
REMARK    1  A    between atoms: C2_2  and  C3_3 
REMARK    2  A    between atoms: C2_2  and  C35_44 
REMARK    3  A    between atoms: C3_3  and  C4_4 
REMARK    4  A    between atoms: C4_4  and  C5_5 
REMARK    5  A    between atoms: C5_5  and  C7_7 
REMARK    6  A    between atoms: C9_9  and  O1_10 
REMARK    7  A    between atoms: C10_11  and  C11_12 
REMARK    8  A    between atoms: C11_12  and  O3_14 
REMARK    9  A    between atoms: C22_25  and  O4_26 
REMARK   10  A    between atoms: O4_26  and  C23_27 
REMARK   11  A    between atoms: C24_29  and  C25_30 
REMARK   12  A    between atoms: C25_30  and  O6_31 
REMARK   13  A    between atoms: C26_32  and  O7_33 
REMARK   14  A    between atoms: C28_35  and  O8_36 
REMARK   15  A    between atoms: C29_37  and  O9_38 
ROOT
HETATM    1  C7  UNL     1       5.215   8.060  12.026  1.00  0.00     0.001 C 
HETATM    2  C8  UNL     1       3.888   8.115  12.842  1.00  0.00     0.039 C 
HETATM    3  C9  UNL     1       4.190   8.909  14.142  1.00  0.00     0.142 C 
HETATM    4  C10 UNL     1       5.591   9.536  13.888  1.00  0.00     0.102 C 
HETATM    5  C12 UNL     1       6.458  10.048  15.046  1.00  0.00    -0.054 C 
HETATM    6  C13 UNL     1       7.814  10.017  14.956  1.00  0.00    -0.067 C 
HETATM    7  C14 UNL     1       8.530   9.391  13.751  1.00  0.00     0.036 C 
HETATM    8  C15 UNL     1       7.655   8.876  12.588  1.00  0.00     0.015 C 
HETATM    9  C16 UNL     1       6.304   8.365  13.095  1.00  0.00    -0.016 C 
HETATM   10  C17 UNL     1       6.599   7.108  13.968  1.00  0.00     0.017 C 
HETATM   11  C18 UNL     1       8.718  10.563  16.097  1.00  0.00    -0.013 C 
HETATM   12  C19 UNL     1       9.138   9.298  16.895  1.00  0.00     0.021 C 
HETATM   13  C20 UNL     1       9.968  11.309  15.525  1.00  0.00     0.017 C 
HETATM   14  C21 UNL     1      10.479  12.507  16.343  1.00  0.00     0.037 C 
HETATM   15  C22 UNL     1      10.284  12.352  17.850  1.00  0.00     0.153 C 
HETATM   16  C30 UNL     1       8.807  12.155  18.149  1.00  0.00    -0.055 C 
HETATM   17  C31 UNL     1       8.302  12.604  19.314  1.00  0.00     0.017 C 
HETATM   18  C32 UNL     1       7.946  11.581  17.009  1.00  0.00     0.029 C 
HETATM   19  C33 UNL     1       6.594  10.997  17.430  1.00  0.00     0.014 C 
HETATM   20  C34 UNL     1       5.732  10.674  16.210  1.00  0.00     0.036 C 
ENDROOT
BRANCH  15  21
HETATM   21  O4  UNL     1      11.069  11.227  18.238  1.00  0.00    -0.349 OA
BRANCH  21  22
HETATM   22  C23 UNL     1      12.480  11.447  18.290  1.00  0.00     0.292 C 
HETATM   23  O5  UNL     1      12.902  12.313  17.244  1.00  0.00    -0.348 OA
HETATM   24  C24 UNL     1      14.312  12.603  17.258  1.00  0.00     0.179 C 
HETATM   25  C26 UNL     1      15.045  12.305  18.587  1.00  0.00     0.183 C 
HETATM   26  C28 UNL     1      14.139  12.763  19.743  1.00  0.00     0.183 C 
HETATM   27  C29 UNL     1      12.752  12.108  19.661  1.00  0.00     0.204 C 
BRANCH  24  28
HETATM   28  C25 UNL     1      14.959  11.857  16.084  1.00  0.00     0.198 C 
BRANCH  28  29
HETATM   29  O6  UNL     1      14.041  10.897  15.552  1.00  0.00    -0.398 OA
HETATM   30  H36 UNL     1      13.515  10.578  16.312  1.00  0.00     0.209 HD
ENDBRANCH  28  29
ENDBRANCH  24  28
BRANCH  25  31
HETATM   31  O7  UNL     1      16.310  12.985  18.520  1.00  0.00    -0.385 OA
HETATM   32  C27 UNL     1      16.247  14.383  18.758  1.00  0.00     0.202 C 
ENDBRANCH  25  31
BRANCH  26  33
HETATM   33  O8  UNL     1      14.703  12.420  21.019  1.00  0.00    -0.390 OA
HETATM   34  H42 UNL     1      14.147  12.876  21.681  1.00  0.00     0.210 HD
ENDBRANCH  26  33
BRANCH  27  35
HETATM   35  O9  UNL     1      11.769  13.124  19.959  1.00  0.00    -0.388 OA
HETATM   36  H44 UNL     1      10.967  12.853  19.463  1.00  0.00     0.210 HD
ENDBRANCH  27  35
ENDBRANCH  21  22
ENDBRANCH  15  21
BRANCH   4  37
HETATM   37  C11 UNL     1       5.406  10.836  13.031  1.00  0.00     0.156 C 
HETATM   38  O2  UNL     1       6.210  11.341  12.257  1.00  0.00    -0.649 OA
BRANCH  37  39
HETATM   39  O3  UNL     1       4.229  11.473  13.196  1.00  0.00    -0.775 OA
HETATM   40  H16 UNL     1       4.315  12.257  12.610  1.00  0.00     0.167 HD
ENDBRANCH  37  39
ENDBRANCH   4  37
BRANCH   3  41
HETATM   41  O1  UNL     1       4.163   7.975  15.226  1.00  0.00    -0.394 OA
HETATM   42  H15 UNL     1       3.819   8.430  16.012  1.00  0.00     0.210 HD
ENDBRANCH   3  41
BRANCH   1  43
HETATM   43  C5  UNL     1       5.290   6.861  11.036  1.00  0.00    -0.013 C 
HETATM   44  C6  UNL     1       6.460   5.930  11.381  1.00  0.00     0.010 C 
BRANCH  43  45
HETATM   45  C4  UNL     1       3.995   6.047  10.814  1.00  0.00     0.009 C 
BRANCH  45  46
HETATM   46  C3  UNL     1       3.310   6.290   9.453  1.00  0.00     0.034 C 
BRANCH  46  47
HETATM   47  C2  UNL     1       1.833   6.675   9.443  1.00  0.00    -0.086 C 
HETATM   48  C1  UNL     1       0.982   6.284  10.409  1.00  0.00     0.014 C 
BRANCH  47  49
HETATM   49  C35 UNL     1       1.405   7.522   8.240  1.00  0.00     0.005 C 
HETATM   50  C36 UNL     1       2.508   8.386   7.612  1.00  0.00     0.014 C 
HETATM   51  C37 UNL     1       0.214   8.415   8.608  1.00  0.00     0.014 C 
ENDBRANCH  47  49
ENDBRANCH  46  47
ENDBRANCH  45  46
ENDBRANCH  43  45
ENDBRANCH   1  43
TORSDOF 15
ENDMDL
