MODEL 1
REMARK minimizedAffinity -7.56719828
REMARK CNNscore 0.859681189
REMARK CNNaffinity 7.03738785
REMARK  7 active torsions:
REMARK  status: ('A' for Active; 'I' for Inactive)
REMARK    1  A    between atoms: C2_2  and  C30_33 
REMARK    2  A    between atoms: C3_3  and  C4_4 
REMARK    3  A    between atoms: C4_4  and  C5_5 
REMARK    4  A    between atoms: C5_5  and  C6_6 
REMARK    5  A    between atoms: C6_6  and  C8_8 
REMARK    6  A    between atoms: C10_10  and  O1_11 
REMARK    7  A    between atoms: C30_33  and  O5_35 
ROOT
HETATM    1  C8  UNL     1       4.442  55.584  -8.088  1.00  0.00     0.001 C 
HETATM    2  C9  UNL     1       3.688  56.854  -7.618  1.00  0.00     0.038 C 
HETATM    3  C10 UNL     1       2.189  56.616  -7.928  1.00  0.00     0.131 C 
HETATM    4  C11 UNL     1       2.079  55.092  -8.228  1.00  0.00     0.014 C 
HETATM    5  C12 UNL     1       1.967  54.328  -6.870  1.00  0.00     0.023 C 
HETATM    6  C13 UNL     1       0.926  54.556  -9.072  1.00  0.00    -0.058 C 
HETATM    7  C14 UNL     1       1.039  53.415  -9.798  1.00  0.00    -0.000 C 
HETATM    8  C15 UNL     1       2.399  52.706  -9.809  1.00  0.00     0.157 C 
HETATM    9  O2  UNL     1       2.528  51.587 -10.305  1.00  0.00    -0.293 OA
HETATM   10  C16 UNL     1       3.628  53.380  -9.205  1.00  0.00     0.094 C 
HETATM   11  C17 UNL     1       3.414  54.879  -9.020  1.00  0.00    -0.019 C 
HETATM   12  C18 UNL     1       3.419  55.537 -10.434  1.00  0.00     0.017 C 
HETATM   13  C19 UNL     1      -0.096  52.836 -10.685  1.00  0.00    -0.008 C 
HETATM   14  C20 UNL     1       0.463  52.871 -12.139  1.00  0.00     0.021 C 
HETATM   15  C21 UNL     1      -0.421  51.360 -10.294  1.00  0.00     0.022 C 
HETATM   16  C22 UNL     1      -1.614  51.201  -9.366  1.00  0.00     0.080 C 
HETATM   17  C23 UNL     1      -2.877  51.724 -10.004  1.00  0.00     0.135 C 
HETATM   18  O3  UNL     1      -3.966  51.211  -9.736  1.00  0.00    -0.297 OA
HETATM   19  C24 UNL     1      -2.755  52.906 -10.971  1.00  0.00     0.018 C 
HETATM   20  C25 UNL     1      -2.810  52.342 -12.403  1.00  0.00     0.023 C 
HETATM   21  C26 UNL     1      -4.008  53.800 -10.810  1.00  0.00     0.023 C 
HETATM   22  C27 UNL     1      -1.429  53.712 -10.669  1.00  0.00     0.014 C 
HETATM   23  C28 UNL     1      -1.573  54.519  -9.359  1.00  0.00     0.011 C 
HETATM   24  C29 UNL     1      -0.347  55.344  -9.024  1.00  0.00     0.036 C 
ENDROOT
BRANCH   1  25
HETATM   25  C6  UNL     1       5.901  55.778  -8.599  1.00  0.00    -0.013 C 
HETATM   26  C7  UNL     1       6.038  55.110  -9.979  1.00  0.00     0.010 C 
BRANCH  25  27
HETATM   27  C5  UNL     1       7.010  55.246  -7.663  1.00  0.00     0.008 C 
BRANCH  27  28
HETATM   28  C4  UNL     1       6.772  55.594  -6.188  1.00  0.00     0.028 C 
BRANCH  28  29
HETATM   29  C3  UNL     1       7.967  56.292  -5.600  1.00  0.00    -0.013 C 
HETATM   30  C2  UNL     1       8.046  57.575  -5.194  1.00  0.00     0.008 C 
HETATM   31  C1  UNL     1       6.952  58.595  -5.290  1.00  0.00     0.055 C 
BRANCH  30  32
HETATM   32  C30 UNL     1       9.349  58.009  -4.624  1.00  0.00     0.171 C 
HETATM   33  O4  UNL     1       9.913  57.540  -3.652  1.00  0.00    -0.646 OA
BRANCH  32  34
HETATM   34  O5  UNL     1       9.891  59.029  -5.310  1.00  0.00    -0.773 OA
HETATM   35  H44 UNL     1      10.724  59.209  -4.828  1.00  0.00     0.167 HD
ENDBRANCH  32  34
ENDBRANCH  30  32
ENDBRANCH  28  29
ENDBRANCH  27  28
ENDBRANCH  25  27
ENDBRANCH   1  25
BRANCH   3  36
HETATM   36  O1  UNL     1       1.388  57.040  -6.835  1.00  0.00    -0.394 OA
HETATM   37  H17 UNL     1       1.588  57.978  -6.671  1.00  0.00     0.210 HD
ENDBRANCH   3  36
TORSDOF 7
ENDMDL
