MODEL 1
REMARK minimizedAffinity -9.11515427
REMARK CNNscore 0.74779135
REMARK CNNaffinity 6.97904205
REMARK  19 active torsions:
REMARK  status: ('A' for Active; 'I' for Inactive)
REMARK    1  A    between atoms: C3_3  and  C4_4 
REMARK    2  A    between atoms: C5_5  and  C6_6 
REMARK    3  A    between atoms: C7_8  and  O2_9 
REMARK    4  A    between atoms: C7_8  and  C8_10 
REMARK    5  A    between atoms: C8_10  and  C10_12 
REMARK       I    between atoms: C10_12  and  N1_14 
REMARK    6  A    between atoms: N1_14  and  C11_15 
REMARK    7  A    between atoms: C11_15  and  C12_16 
REMARK    8  A    between atoms: C13_17  and  C14_18 
REMARK    9  A    between atoms: C15_19  and  C17_21 
REMARK   10  A    between atoms: C17_21  and  O4_22 
REMARK   11  A    between atoms: C17_21  and  C19_24 
REMARK   12  A    between atoms: C19_24  and  C21_26 
REMARK   13  A    between atoms: C23_28  and  O5_29 
REMARK   14  A    between atoms: C24_30  and  C25_31 
REMARK   15  A    between atoms: C26_32  and  C27_33 
REMARK   16  A    between atoms: C28_34  and  C29_35 
REMARK   17  A    between atoms: C30_36  and  C31_37 
REMARK   18  A    between atoms: C31_37  and  O7_39 
REMARK   19  A    between atoms: C33_42  and  O9_43 
ROOT
HETATM    1  C12 UNL     1      -6.208  47.692 -28.029  1.00  0.00    -0.007 C 
HETATM    2  C13 UNL     1      -6.725  47.249 -29.187  1.00  0.00    -0.002 C 
ENDROOT
BRANCH   2   3
HETATM    3  C14 UNL     1      -8.014  46.605 -29.273  1.00  0.00     0.005 C 
HETATM    4  C15 UNL     1      -8.834  46.561 -30.343  1.00  0.00    -0.055 C 
HETATM    5  C16 UNL     1      -8.584  47.289 -31.644  1.00  0.00     0.046 C 
BRANCH   4   6
HETATM    6  C17 UNL     1     -10.096  45.689 -30.363  1.00  0.00     0.155 C 
BRANCH   6   7
HETATM    7  O4  UNL     1      -9.849  44.422 -29.718  1.00  0.00    -0.386 OA
HETATM    8  C18 UNL     1      -9.167  43.503 -30.563  1.00  0.00     0.202 C 
ENDBRANCH   6   7
BRANCH   6   9
HETATM    9  C19 UNL     1     -11.327  46.347 -29.671  1.00  0.00     0.044 C 
HETATM   10  C20 UNL     1     -11.450  47.839 -30.008  1.00  0.00     0.015 C 
BRANCH   9  11
HETATM   11  C21 UNL     1     -11.235  46.133 -28.145  1.00  0.00     0.131 C 
HETATM   12  C22 UNL     1     -10.449  47.198 -27.368  1.00  0.00     0.067 C 
HETATM   13  C23 UNL     1     -11.391  47.660 -26.272  1.00  0.00     0.153 C 
HETATM   14  C24 UNL     1     -12.446  46.552 -26.225  1.00  0.00     0.173 C 
HETATM   15  O8  UNL     1     -12.559  46.099 -27.580  1.00  0.00    -0.374 OA
BRANCH  13  16
HETATM   16  O5  UNL     1     -11.916  48.932 -26.668  1.00  0.00    -0.393 OA
HETATM   17  H35 UNL     1     -12.518  49.219 -25.959  1.00  0.00     0.210 HD
ENDBRANCH  13  16
BRANCH  14  18
HETATM   18  C25 UNL     1     -13.812  46.965 -25.761  1.00  0.00     0.007 C 
HETATM   19  C26 UNL     1     -14.312  46.706 -24.542  1.00  0.00    -0.001 C 
BRANCH  19  20
HETATM   20  C27 UNL     1     -15.652  47.085 -24.150  1.00  0.00    -0.000 C 
HETATM   21  C28 UNL     1     -16.741  46.765 -24.867  1.00  0.00     0.000 C 
BRANCH  21  22
HETATM   22  C29 UNL     1     -18.075  47.164 -24.474  1.00  0.00     0.007 C 
HETATM   23  C30 UNL     1     -19.235  46.556 -24.766  1.00  0.00     0.081 C 
BRANCH  23  24
HETATM   24  C31 UNL     1     -19.413  45.335 -25.566  1.00  0.00     0.165 C 
HETATM   25  O6  UNL     1     -19.330  45.195 -26.769  1.00  0.00    -0.647 OA
BRANCH  24  26
HETATM   26  O7  UNL     1     -19.698  44.303 -24.753  1.00  0.00    -0.773 OA
HETATM   27  H43 UNL     1     -19.805  43.547 -25.366  1.00  0.00     0.167 HD
ENDBRANCH  24  26
ENDBRANCH  23  24
ENDBRANCH  21  22
ENDBRANCH  19  20
ENDBRANCH  14  18
ENDBRANCH   9  11
ENDBRANCH   6   9
ENDBRANCH   4   6
ENDBRANCH   2   3
BRANCH   1  28
HETATM   28  C11 UNL     1      -4.816  48.224 -27.897  1.00  0.00     0.149 C 
BRANCH  28  29
HETATM   29  N1  UNL     1      -4.667  48.839 -26.604  1.00  0.00    -0.357 N 
HETATM   30  C10 UNL     1      -3.480  48.827 -25.914  1.00  0.00     0.227 C 
HETATM   31  O3  UNL     1      -2.474  48.259 -26.331  1.00  0.00    -0.273 OA
HETATM   32  H14 UNL     1      -5.370  49.508 -26.295  1.00  0.00     0.162 HD
BRANCH  30  33
HETATM   33  C8  UNL     1      -3.531  49.543 -24.569  1.00  0.00     0.136 C 
HETATM   34  C9  UNL     1      -2.833  48.695 -23.500  1.00  0.00     0.026 C 
BRANCH  33  35
HETATM   35  C7  UNL     1      -3.014  51.003 -24.660  1.00  0.00     0.176 C 
HETATM   36  O1  UNL     1      -1.726  51.005 -24.030  1.00  0.00    -0.344 OA
HETATM   37  C6  UNL     1      -0.928  52.144 -24.344  1.00  0.00     0.158 C 
HETATM   38  C34 UNL     1      -0.429  52.043 -25.817  1.00  0.00     0.008 C 
HETATM   39  C33 UNL     1      -1.556  51.420 -26.697  1.00  0.00     0.134 C 
HETATM   40  C35 UNL     1      -0.017  53.449 -26.302  1.00  0.00     0.020 C 
HETATM   41  C36 UNL     1       0.809  51.125 -25.955  1.00  0.00     0.020 C 
HETATM   42  C32 UNL     1      -2.945  51.583 -26.086  1.00  0.00     0.101 C 
BRANCH  37  43
HETATM   43  C5  UNL     1       0.148  52.201 -23.292  1.00  0.00     0.006 C 
HETATM   44  C4  UNL     1       0.452  53.290 -22.566  1.00  0.00    -0.002 C 
BRANCH  44  45
HETATM   45  C3  UNL     1       1.469  53.277 -21.542  1.00  0.00    -0.005 C 
HETATM   46  C2  UNL     1       1.269  53.264 -20.216  1.00  0.00    -0.031 C 
HETATM   47  C1  UNL     1      -0.023  53.279 -19.467  1.00  0.00     0.036 C 
ENDBRANCH  44  45
ENDBRANCH  37  43
BRANCH  39  48
HETATM   48  O9  UNL     1      -1.578  51.980 -28.010  1.00  0.00    -0.395 OA
HETATM   49  H47 UNL     1      -0.768  51.695 -28.468  1.00  0.00     0.210 HD
ENDBRANCH  39  48
BRANCH  35  50
HETATM   50  O2  UNL     1      -3.886  51.801 -23.844  1.00  0.00    -0.364 OA
HETATM   51  H9  UNL     1      -3.742  52.732 -24.084  1.00  0.00     0.213 HD
ENDBRANCH  35  50
ENDBRANCH  33  35
ENDBRANCH  30  33
ENDBRANCH  28  29
ENDBRANCH   1  28
TORSDOF 19
ENDMDL
