MODEL 1
REMARK minimizedAffinity -8.13822937
REMARK  12 active torsions:
REMARK  status: ('A' for Active; 'I' for Inactive)
REMARK    1  A    between atoms: C3_3  and  O1_4 
REMARK    2  A    between atoms: O1_4  and  C4_5 
REMARK    3  A    between atoms: C5_7  and  C6_8 
REMARK    4  A    between atoms: C6_8  and  O3_9 
REMARK    5  A    between atoms: C7_10  and  O4_11 
REMARK    6  A    between atoms: C8_12  and  O5_13 
REMARK    7  A    between atoms: C9_14  and  O6_15 
REMARK    8  A    between atoms: C10_16  and  O7_17 
REMARK    9  A    between atoms: C15_22  and  O8_23 
REMARK   10  A    between atoms: C15_22  and  C16_24 
REMARK   11  A    between atoms: C17_25  and  C18_26 
REMARK   12  A    between atoms: C18_26  and  O9_28 
ROOT
HETATM    1  C1  UNL     1      -5.394   5.465  13.028  1.00  0.00     0.016 C 
HETATM    2  C2  UNL     1      -4.130   6.315  13.282  1.00  0.00     0.052 C 
HETATM    3  C3  UNL     1      -3.068   5.504  14.064  1.00  0.00     0.160 C 
HETATM    4  C10 UNL     1      -1.836   6.348  14.466  1.00  0.00     0.148 C 
HETATM    5  C11 UNL     1      -2.183   7.737  15.001  1.00  0.00     0.046 C 
HETATM    6  C12 UNL     1      -3.118   8.552  14.085  1.00  0.00    -0.010 C 
HETATM    7  C13 UNL     1      -3.361   9.927  14.762  1.00  0.00     0.018 C 
HETATM    8  C14 UNL     1      -2.398   8.864  12.748  1.00  0.00     0.018 C 
HETATM    9  C15 UNL     1      -4.450   7.734  13.856  1.00  0.00     0.088 C 
ENDROOT
BRANCH   3  10
HETATM   10  O1  UNL     1      -2.728   4.396  13.203  1.00  0.00    -0.350 OA
BRANCH  10  11
HETATM   11  C4  UNL     1      -2.365   4.718  11.870  1.00  0.00     0.292 C 
HETATM   12  O2  UNL     1      -3.313   4.221  10.924  1.00  0.00    -0.348 OA
HETATM   13  C5  UNL     1      -3.464   2.789  10.879  1.00  0.00     0.179 C 
HETATM   14  C7  UNL     1      -2.261   2.005  11.422  1.00  0.00     0.180 C 
HETATM   15  C8  UNL     1      -0.993   2.738  10.998  1.00  0.00     0.183 C 
HETATM   16  C9  UNL     1      -0.949   4.153  11.583  1.00  0.00     0.204 C 
BRANCH  13  17
HETATM   17  C6  UNL     1      -4.801   2.337  11.488  1.00  0.00     0.198 C 
BRANCH  17  18
HETATM   18  O3  UNL     1      -5.226   1.069  11.003  1.00  0.00    -0.398 OA
HETATM   19  H10 UNL     1      -6.113   0.910  11.369  1.00  0.00     0.209 HD
ENDBRANCH  17  18
ENDBRANCH  13  17
BRANCH  14  20
HETATM   20  O4  UNL     1      -2.243   0.677  10.878  1.00  0.00    -0.390 OA
HETATM   21  H12 UNL     1      -1.342   0.345  11.072  1.00  0.00     0.210 HD
ENDBRANCH  14  20
BRANCH  15  22
HETATM   22  O5  UNL     1       0.160   1.978  11.403  1.00  0.00    -0.390 OA
HETATM   23  H14 UNL     1       0.936   2.545  11.227  1.00  0.00     0.210 HD
ENDBRANCH  15  22
BRANCH  16  24
HETATM   24  O6  UNL     1      -0.228   4.984  10.647  1.00  0.00    -0.388 OA
HETATM   25  H16 UNL     1      -0.836   5.166   9.905  1.00  0.00     0.210 HD
ENDBRANCH  16  24
ENDBRANCH  10  11
ENDBRANCH   3  10
BRANCH   4  26
HETATM   26  O7  UNL     1      -1.091   5.686  15.503  1.00  0.00    -0.393 OA
HETATM   27  H18 UNL     1      -1.622   5.688  16.316  1.00  0.00     0.210 HD
ENDBRANCH   4  26
BRANCH   9  28
HETATM   28  O8  UNL     1      -5.217   8.386  12.824  1.00  0.00    -0.385 OA
HETATM   29  H27 UNL     1      -5.346   9.314  13.073  1.00  0.00     0.211 HD
ENDBRANCH   9  28
BRANCH   9  30
HETATM   30  C16 UNL     1      -5.359   7.786  15.079  1.00  0.00     0.010 C 
HETATM   31  C17 UNL     1      -6.702   7.730  15.179  1.00  0.00     0.003 C 
BRANCH  31  32
HETATM   32  C18 UNL     1      -7.492   7.781  16.463  1.00  0.00     0.136 C 
HETATM   33  C19 UNL     1      -8.987   7.781  16.181  1.00  0.00     0.043 C 
BRANCH  32  34
HETATM   34  O9  UNL     1      -7.188   6.666  17.291  1.00  0.00    -0.392 OA
HETATM   35  H34 UNL     1      -6.237   6.721  17.492  1.00  0.00     0.210 HD
ENDBRANCH  32  34
ENDBRANCH  31  32
ENDBRANCH   9  30
TORSDOF 12
ENDMDL
