MODEL 1
REMARK minimizedAffinity -7.52309513
REMARK CNNscore 0.831643701
REMARK CNNaffinity 7.35273743
REMARK  7 active torsions:
REMARK  status: ('A' for Active; 'I' for Inactive)
REMARK    1  A    between atoms: C2_2  and  O2_4 
REMARK    2  A    between atoms: O2_4  and  C3_5 
REMARK    3  A    between atoms: C3_5  and  C4_6 
REMARK    4  A    between atoms: C3_5  and  C9_12 
REMARK    5  A    between atoms: C5_7  and  C6_8 
REMARK    6  A    between atoms: C6_8  and  O3_11 
REMARK    7  A    between atoms: C9_12  and  C11_14 
ROOT
HETATM    1  C11 UNL     1       2.036  53.579 -10.795  1.00  0.00     0.001 C 
HETATM    2  C12 UNL     1       0.947  54.627 -10.423  1.00  0.00     0.007 C 
HETATM    3  C13 UNL     1       1.554  55.599  -9.394  1.00  0.00     0.015 C 
HETATM    4  C14 UNL     1       3.062  55.313  -9.428  1.00  0.00    -0.013 C 
HETATM    5  C15 UNL     1       3.660  56.133 -10.615  1.00  0.00     0.021 C 
HETATM    6  C16 UNL     1       3.900  55.699  -8.216  1.00  0.00    -0.068 C 
HETATM    7  C17 UNL     1       5.020  55.003  -7.897  1.00  0.00    -0.068 C 
HETATM    8  C18 UNL     1       5.455  53.799  -8.748  1.00  0.00     0.036 C 
HETATM    9  C19 UNL     1       4.514  53.339  -9.887  1.00  0.00     0.015 C 
HETATM   10  C20 UNL     1       3.059  53.749  -9.623  1.00  0.00    -0.029 C 
HETATM   11  C21 UNL     1       2.536  52.970  -8.374  1.00  0.00     0.016 C 
HETATM   12  C22 UNL     1       5.877  55.323  -6.637  1.00  0.00    -0.015 C 
HETATM   13  C23 UNL     1       5.786  54.085  -5.699  1.00  0.00     0.020 C 
HETATM   14  C24 UNL     1       7.347  55.574  -7.043  1.00  0.00     0.021 C 
HETATM   15  C25 UNL     1       8.292  55.736  -5.857  1.00  0.00     0.080 C 
HETATM   16  C26 UNL     1       7.640  56.399  -4.667  1.00  0.00     0.135 C 
HETATM   17  O4  UNL     1       8.124  56.254  -3.543  1.00  0.00    -0.297 OA
HETATM   18  C27 UNL     1       6.437  57.309  -4.930  1.00  0.00     0.018 C 
HETATM   19  C28 UNL     1       5.782  57.691  -3.583  1.00  0.00     0.023 C 
HETATM   20  C29 UNL     1       7.020  58.605  -5.538  1.00  0.00     0.023 C 
HETATM   21  C30 UNL     1       5.357  56.577  -5.821  1.00  0.00     0.013 C 
HETATM   22  C31 UNL     1       4.608  57.574  -6.720  1.00  0.00     0.011 C 
HETATM   23  C32 UNL     1       3.453  56.907  -7.445  1.00  0.00     0.036 C 
ENDROOT
BRANCH   1  24
HETATM   24  C9  UNL     1       1.443  52.164 -11.108  1.00  0.00     0.020 C 
HETATM   25  C10 UNL     1       1.280  51.334  -9.825  1.00  0.00     0.013 C 
BRANCH  24  26
HETATM   26  C3  UNL     1       2.277  51.310 -12.122  1.00  0.00     0.158 C 
BRANCH  26  27
HETATM   27  O2  UNL     1       3.597  51.060 -11.602  1.00  0.00    -0.312 OA
BRANCH  27  28
HETATM   28  C2  UNL     1       4.168  49.864 -11.913  1.00  0.00     0.255 C 
HETATM   29  C1  UNL     1       3.568  48.780 -11.071  1.00  0.00     0.126 C 
HETATM   30  O1  UNL     1       5.017  49.672 -12.772  1.00  0.00    -0.266 OA
ENDBRANCH  27  28
ENDBRANCH  26  27
BRANCH  26  31
HETATM   31  C4  UNL     1       2.476  51.964 -13.468  1.00  0.00     0.005 C 
HETATM   32  C5  UNL     1       1.846  51.580 -14.592  1.00  0.00     0.008 C 
BRANCH  32  33
HETATM   33  C6  UNL     1       1.984  52.176 -15.975  1.00  0.00     0.068 C 
HETATM   34  C7  UNL     1       1.201  51.331 -16.985  1.00  0.00     0.050 C 
HETATM   35  C8  UNL     1       3.421  52.375 -16.469  1.00  0.00     0.050 C 
BRANCH  33  36
HETATM   36  O3  UNL     1       1.363  53.462 -15.919  1.00  0.00    -0.387 OA
HETATM   37  H13 UNL     1       1.818  53.966 -15.222  1.00  0.00     0.211 HD
ENDBRANCH  33  36
ENDBRANCH  32  33
ENDBRANCH  26  31
ENDBRANCH  24  26
ENDBRANCH   1  24
TORSDOF 7
ENDMDL
