MODEL 1
REMARK minimizedAffinity -8.79190922
REMARK  9 active torsions:
REMARK  status: ('A' for Active; 'I' for Inactive)
REMARK    1  A    between atoms: C11_11  and  C13_13 
REMARK    2  A    between atoms: C13_13  and  O2_15 
REMARK    3  A    between atoms: C15_17  and  C16_18 
REMARK    4  A    between atoms: C16_18  and  C17_19 
REMARK    5  A    between atoms: C17_19  and  C18_20 
REMARK    6  A    between atoms: C19_21  and  C20_22 
REMARK    7  A    between atoms: C20_22  and  O3_23 
REMARK    8  A    between atoms: O3_23  and  C21_24 
REMARK    9  A    between atoms: C21_24  and  C22_26 
ROOT
HETATM    1  C16 UNL     1      -1.622   8.034  12.333  1.00  0.00     0.014 C 
ENDROOT
BRANCH   1   2
HETATM    2  C15 UNL     1      -0.067   8.106  12.317  1.00  0.00     0.022 C 
HETATM    3  C2  UNL     1       0.630   7.453  13.513  1.00  0.00    -0.084 C 
HETATM    4  C1  UNL     1       0.066   6.638  14.420  1.00  0.00     0.014 C 
HETATM    5  C3  UNL     1       2.103   7.763  13.590  1.00  0.00     0.034 C 
HETATM    6  C4  UNL     1       2.809   7.307  12.313  1.00  0.00     0.011 C 
HETATM    7  C5  UNL     1       2.154   7.905  11.047  1.00  0.00     0.012 C 
HETATM    8  C6  UNL     1       0.604   7.583  10.970  1.00  0.00    -0.032 C 
HETATM    9  C11 UNL     1       2.956   7.678   9.713  1.00  0.00     0.049 C 
HETATM   10  C7  UNL     1       0.314   6.073  10.795  1.00  0.00     0.016 C 
HETATM   11  C8  UNL     1       0.008   8.347   9.754  1.00  0.00     0.010 C 
HETATM   12  C9  UNL     1       0.762   8.128   8.447  1.00  0.00     0.002 C 
HETATM   13  C10 UNL     1       2.242   8.459   8.579  1.00  0.00     0.020 C 
HETATM   14  C12 UNL     1       4.383   8.270   9.823  1.00  0.00     0.026 C 
BRANCH   9  15
HETATM   15  C13 UNL     1       3.183   6.189   9.381  1.00  0.00     0.267 C 
HETATM   16  O1  UNL     1       2.301   5.424   9.012  1.00  0.00    -0.264 OA
BRANCH  15  17
HETATM   17  O2  UNL     1       4.467   5.799   9.605  1.00  0.00    -0.326 OA
HETATM   18  C14 UNL     1       5.032   6.294  10.820  1.00  0.00     0.213 C 
ENDBRANCH  15  17
ENDBRANCH   9  15
ENDBRANCH   1   2
BRANCH   1  19
HETATM   19  C17 UNL     1      -2.237   7.635  13.688  1.00  0.00     0.042 C 
BRANCH  19  20
HETATM   20  C18 UNL     1      -2.882   8.776  14.408  1.00  0.00    -0.024 A 
HETATM   21  C19 UNL     1      -4.228   9.107  14.435  1.00  0.00     0.083 A 
HETATM   22  O5  UNL     1      -4.427  10.208  15.217  1.00  0.00    -0.324 OA
HETATM   23  C28 UNL     1      -3.214  10.594  15.681  1.00  0.00     0.143 A 
HETATM   24  C29 UNL     1      -2.233   9.754  15.215  1.00  0.00     0.034 A 
BRANCH  21  25
HETATM   25  C20 UNL     1      -5.441   8.520  13.811  1.00  0.00     0.244 C 
BRANCH  25  26
HETATM   26  O3  UNL     1      -5.697   7.262  14.452  1.00  0.00    -0.311 OA
BRANCH  26  27
HETATM   27  C21 UNL     1      -6.897   6.700  14.185  1.00  0.00     0.293 C 
HETATM   28  O4  UNL     1      -7.994   7.186  14.412  1.00  0.00    -0.259 OA
BRANCH  27  29
HETATM   29  C22 UNL     1      -6.710   5.372  13.537  1.00  0.00     0.039 A 
HETATM   30  C23 UNL     1      -7.785   4.472  13.548  1.00  0.00     0.019 A 
HETATM   31  C24 UNL     1      -7.658   3.214  12.952  1.00  0.00     0.025 A 
HETATM   32  C25 UNL     1      -6.456   2.851  12.348  1.00  0.00     0.034 A 
HETATM   33 CL1  UNL     1      -6.300   1.303  11.615  1.00  0.00    -0.084 Cl
HETATM   34  C26 UNL     1      -5.378   3.735  12.335  1.00  0.00     0.025 A 
HETATM   35  C27 UNL     1      -5.503   4.995  12.930  1.00  0.00     0.019 A 
ENDBRANCH  27  29
ENDBRANCH  26  27
ENDBRANCH  25  26
ENDBRANCH  21  25
ENDBRANCH  19  20
ENDBRANCH   1  19
TORSDOF 9
ENDMDL
