MODEL 1
REMARK minimizedAffinity -9.09198475
REMARK  7 active torsions:
REMARK  status: ('A' for Active; 'I' for Inactive)
REMARK    1  A    between atoms: C2_2  and  C4_4 
REMARK    2  A    between atoms: C7_7  and  O1_9 
REMARK    3  A    between atoms: C9_10  and  C10_11 
REMARK    4  A    between atoms: C11_12  and  C12_13 
REMARK    5  A    between atoms: C14_15  and  C15_16 
REMARK    6  A    between atoms: C24_26  and  C26_28 
REMARK    7  A    between atoms: C29_32  and  O4_34 
ROOT
HETATM    1  C15 UNL     1      -2.055   9.024  14.710  1.00  0.00     0.149 C 
HETATM    2  C16 UNL     1      -2.945   9.600  15.798  1.00  0.00     0.054 C 
HETATM    3  C17 UNL     1      -2.460  11.064  16.023  1.00  0.00     0.050 C 
HETATM    4  C18 UNL     1      -1.663  11.307  14.688  1.00  0.00     0.272 C 
HETATM    5  O2  UNL     1      -1.993  12.402  13.858  1.00  0.00    -0.360 OA
HETATM    6  C19 UNL     1      -1.665  13.660  14.422  1.00  0.00     0.171 C 
HETATM    7  C20 UNL     1      -2.809  14.160  15.284  1.00  0.00     0.027 C 
HETATM    8  C21 UNL     1      -3.971  13.178  15.349  1.00  0.00     0.012 C 
HETATM    9  C22 UNL     1      -3.766  12.000  16.316  1.00  0.00     0.032 C 
HETATM   10  C23 UNL     1      -3.981  12.283  17.842  1.00  0.00    -0.066 C 
HETATM   11  C24 UNL     1      -4.453  13.396  18.473  1.00  0.00    -0.021 C 
HETATM   12  C25 UNL     1      -5.048  14.635  17.865  1.00  0.00     0.052 C 
HETATM   13  C27 UNL     1      -3.654  11.025  18.618  1.00  0.00     0.038 C 
HETATM   14  C28 UNL     1      -2.157  10.769  18.609  1.00  0.00     0.042 C 
HETATM   15  C29 UNL     1      -1.464  11.116  17.265  1.00  0.00     0.067 C 
HETATM   16  C30 UNL     1      -0.210  10.221  17.189  1.00  0.00     0.047 C 
HETATM   17  O5  UNL     1      -1.802  10.131  13.870  1.00  0.00    -0.351 OA
ENDROOT
BRANCH   1  18
HETATM   18  C14 UNL     1      -2.713   7.875  13.991  1.00  0.00     0.011 C 
HETATM   19  C12 UNL     1      -4.014   7.654  13.706  1.00  0.00    -0.064 C 
HETATM   20  C13 UNL     1      -5.116   8.643  13.993  1.00  0.00     0.048 C 
BRANCH  19  21
HETATM   21  C11 UNL     1      -4.371   6.397  13.047  1.00  0.00     0.003 C 
HETATM   22  C10 UNL     1      -3.981   5.162  13.409  1.00  0.00    -0.018 C 
BRANCH  22  23
HETATM   23  C9  UNL     1      -4.335   3.864  12.707  1.00  0.00     0.050 C 
HETATM   24  C4  UNL     1      -5.740   3.827  12.021  1.00  0.00     0.024 C 
HETATM   25  C5  UNL     1      -5.535   2.971  10.764  1.00  0.00     0.013 C 
HETATM   26  C6  UNL     1      -4.141   3.377  10.303  1.00  0.00     0.039 C 
HETATM   27  C7  UNL     1      -3.329   3.396  11.603  1.00  0.00     0.062 C 
HETATM   28  C8  UNL     1      -2.041   4.200  11.446  1.00  0.00     0.046 C 
BRANCH  24  29
HETATM   29  C2  UNL     1      -6.871   3.371  12.931  1.00  0.00    -0.088 C 
HETATM   30  C1  UNL     1      -7.426   2.153  12.793  1.00  0.00     0.014 C 
HETATM   31  C3  UNL     1      -7.369   4.320  13.991  1.00  0.00     0.043 C 
ENDBRANCH  24  29
BRANCH  27  32
HETATM   32  O1  UNL     1      -2.944   2.039  11.887  1.00  0.00    -0.390 OA
HETATM   33  H14 UNL     1      -2.434   2.048  12.716  1.00  0.00     0.210 HD
ENDBRANCH  27  32
ENDBRANCH  22  23
ENDBRANCH  19  21
ENDBRANCH   1  18
BRANCH  15  34
HETATM   34  O4  UNL     1      -0.976  12.466  17.351  1.00  0.00    -0.389 OA
HETATM   35  H44 UNL     1      -0.369  12.533  18.109  1.00  0.00     0.210 HD
ENDBRANCH  15  34
BRANCH  11  36
HETATM   36  C26 UNL     1      -4.434  13.463  19.977  1.00  0.00     0.265 C 
HETATM   37  O3  UNL     1      -5.287  12.952  20.693  1.00  0.00    -0.302 OA
ENDBRANCH  11  36
TORSDOF 7
ENDMDL
