MODEL 1
REMARK minimizedAffinity -7.11608553
REMARK CNNscore 0.60665375
REMARK CNNaffinity 5.58655024
REMARK  8 active torsions:
REMARK  status: ('A' for Active; 'I' for Inactive)
REMARK    1  A    between atoms: C2_2  and  C3_3 
REMARK    2  A    between atoms: C2_2  and  C27_30 
REMARK    3  A    between atoms: C3_3  and  C4_4 
REMARK    4  A    between atoms: C4_4  and  C5_5 
REMARK    5  A    between atoms: C5_5  and  C7_7 
REMARK    6  A    between atoms: C26_28  and  O3_29 
REMARK    7  A    between atoms: C27_30  and  C29_32 
REMARK    8  A    between atoms: C29_32  and  O5_34 
ROOT
HETATM    1  C7  UNL     1      12.047  11.834  16.815  1.00  0.00    -0.002 C 
HETATM    2  C8  UNL     1      11.244  12.404  18.019  1.00  0.00     0.006 C 
HETATM    3  C9  UNL     1       9.791  11.946  17.833  1.00  0.00     0.010 C 
HETATM    4  C10 UNL     1       9.867  10.903  16.718  1.00  0.00     0.027 C 
HETATM    5  C11 UNL     1       8.621  10.438  15.998  1.00  0.00    -0.036 C 
HETATM    6  C12 UNL     1       8.691   9.908  14.751  1.00  0.00     0.002 C 
HETATM    7  C13 UNL     1      10.042   9.867  14.059  1.00  0.00     0.157 C 
HETATM    8  O1  UNL     1      10.156   9.399  12.927  1.00  0.00    -0.293 OA
HETATM    9  C14 UNL     1      11.282  10.380  14.780  1.00  0.00     0.093 C 
HETATM   10  C15 UNL     1      10.942  11.493  15.769  1.00  0.00    -0.026 C 
HETATM   11  C16 UNL     1      10.447  12.738  14.997  1.00  0.00     0.016 C 
HETATM   12  C17 UNL     1       7.460   9.364  13.992  1.00  0.00    -0.008 C 
HETATM   13  C18 UNL     1       7.098  10.432  12.926  1.00  0.00     0.021 C 
HETATM   14  C19 UNL     1       7.750   8.004  13.277  1.00  0.00     0.022 C 
HETATM   15  C20 UNL     1       6.567   7.042  13.160  1.00  0.00     0.080 C 
HETATM   16  C21 UNL     1       5.248   7.766  13.111  1.00  0.00     0.131 C 
HETATM   17  O2  UNL     1       4.415   7.530  12.236  1.00  0.00    -0.298 OA
HETATM   18  C22 UNL     1       4.957   8.739  14.244  1.00  0.00     0.056 C 
HETATM   19  C23 UNL     1       3.915   8.109  15.166  1.00  0.00     0.018 C 
HETATM   20  C24 UNL     1       6.268   9.109  14.984  1.00  0.00     0.012 C 
HETATM   21  C25 UNL     1       6.068  10.294  15.937  1.00  0.00     0.042 C 
HETATM   22  C26 UNL     1       7.327  10.557  16.762  1.00  0.00     0.148 C 
ENDROOT
BRANCH   1  23
HETATM   23  C5  UNL     1      13.313  12.671  16.479  1.00  0.00    -0.014 C 
HETATM   24  C6  UNL     1      14.375  11.980  15.612  1.00  0.00     0.010 C 
BRANCH  23  25
HETATM   25  C4  UNL     1      14.023  13.291  17.707  1.00  0.00     0.009 C 
BRANCH  25  26
HETATM   26  C3  UNL     1      15.207  12.494  18.282  1.00  0.00     0.034 C 
BRANCH  26  27
HETATM   27  C2  UNL     1      16.410  13.271  18.799  1.00  0.00    -0.075 C 
HETATM   28  C1  UNL     1      16.981  14.279  18.114  1.00  0.00     0.015 C 
BRANCH  27  29
HETATM   29  C27 UNL     1      16.995  12.843  20.149  1.00  0.00     0.107 C 
HETATM   30  C28 UNL     1      18.400  13.411  20.358  1.00  0.00     0.026 C 
BRANCH  29  31
HETATM   31  C29 UNL     1      16.075  13.186  21.323  1.00  0.00     0.147 C 
HETATM   32  O4  UNL     1      16.140  14.145  22.076  1.00  0.00    -0.650 OA
BRANCH  31  33
HETATM   33  O5  UNL     1      15.058  12.308  21.459  1.00  0.00    -0.776 OA
HETATM   34  H42 UNL     1      14.542  12.669  22.211  1.00  0.00     0.167 HD
ENDBRANCH  31  33
ENDBRANCH  29  31
ENDBRANCH  27  29
ENDBRANCH  26  27
ENDBRANCH  25  26
ENDBRANCH  23  25
ENDBRANCH   1  23
BRANCH  22  35
HETATM   35  O3  UNL     1       7.374   9.639  17.850  1.00  0.00    -0.391 OA
HETATM   36  H37 UNL     1       7.686   8.784  17.510  1.00  0.00     0.210 HD
ENDBRANCH  22  35
TORSDOF 8
ENDMDL
