MODEL 1
REMARK minimizedAffinity -8.42573738
REMARK CNNscore 0.686155796
REMARK CNNaffinity 6.93318176
REMARK  8 active torsions:
REMARK  status: ('A' for Active; 'I' for Inactive)
REMARK    1  A    between atoms: C4_5  and  C5_6 
REMARK    2  A    between atoms: C5_6  and  O2_7 
REMARK    3  A    between atoms: C5_6  and  C6_8 
REMARK    4  A    between atoms: C6_8  and  O3_10 
REMARK    5  A    between atoms: C6_8  and  C8_11 
REMARK    6  A    between atoms: C15_19  and  C16_20 
REMARK    7  A    between atoms: C38_44  and  C39_45 
REMARK    8  A    between atoms: C39_45  and  O7_46 
ROOT
HETATM    1  C8  UNL     1       5.764  49.208  -7.632  1.00  0.00     0.034 C 
HETATM    2  C9  UNL     1       4.937  49.200  -6.321  1.00  0.00     0.012 C 
HETATM    3  C10 UNL     1       4.499  50.648  -6.050  1.00  0.00     0.044 C 
HETATM    4  C11 UNL     1       4.632  51.361  -7.413  1.00  0.00     0.093 C 
HETATM    5  O4  UNL     1       3.575  50.924  -8.300  1.00  0.00    -0.363 OA
HETATM    6  C12 UNL     1       2.230  51.139  -7.856  1.00  0.00     0.263 C 
HETATM    7  C13 UNL     1       1.476  51.953  -8.822  1.00  0.00    -0.080 C 
HETATM    8  C14 UNL     1       0.844  52.664  -9.557  1.00  0.00    -0.093 C 
HETATM    9  C15 UNL     1       0.129  53.597 -10.465  1.00  0.00     0.121 C 
HETATM   10  C22 UNL     1       0.297  55.070  -9.995  1.00  0.00     0.190 C 
HETATM   11  O5  UNL     1       1.464  55.718 -10.535  1.00  0.00    -0.384 OA
HETATM   12  C23 UNL     1       2.700  55.333  -9.936  1.00  0.00     0.122 C 
HETATM   13  C24 UNL     1       3.815  55.539 -10.960  1.00  0.00     0.033 C 
HETATM   14  C25 UNL     1       5.227  55.555 -10.369  1.00  0.00     0.013 C 
HETATM   15  C26 UNL     1       5.349  54.980  -8.932  1.00  0.00    -0.026 C 
HETATM   16  C27 UNL     1       6.779  55.321  -8.429  1.00  0.00     0.016 C 
HETATM   17  C28 UNL     1       4.351  55.767  -8.031  1.00  0.00     0.071 C 
HETATM   18  C29 UNL     1       2.974  56.086  -8.642  1.00  0.00     0.045 C 
HETATM   19  C30 UNL     1       4.192  55.137  -6.666  1.00  0.00     0.154 C 
HETATM   20  O6  UNL     1       3.932  55.809  -5.672  1.00  0.00    -0.293 OA
HETATM   21  C31 UNL     1       4.314  53.674  -6.512  1.00  0.00     0.057 C 
HETATM   22  C32 UNL     1       4.682  52.879  -7.528  1.00  0.00    -0.036 C 
HETATM   23  C33 UNL     1       5.096  53.413  -8.909  1.00  0.00     0.026 C 
HETATM   24  C34 UNL     1       6.253  52.614  -9.579  1.00  0.00     0.011 C 
HETATM   25  C35 UNL     1       6.180  51.095  -9.390  1.00  0.00     0.014 C 
HETATM   26  C36 UNL     1       5.996  50.741  -7.901  1.00  0.00    -0.002 C 
HETATM   27  C37 UNL     1       7.210  51.289  -7.096  1.00  0.00     0.019 C 
ENDROOT
BRANCH   1  28
HETATM   28  C6  UNL     1       6.960  48.187  -7.695  1.00  0.00     0.087 C 
HETATM   29  C7  UNL     1       6.825  46.958  -6.793  1.00  0.00     0.049 C 
BRANCH  28  30
HETATM   30  C5  UNL     1       7.364  47.756  -9.155  1.00  0.00     0.181 C 
BRANCH  30  31
HETATM   31  C4  UNL     1       8.559  46.810  -9.357  1.00  0.00     0.159 C 
HETATM   32  O1  UNL     1       8.122  45.686 -10.174  1.00  0.00    -0.382 OA
HETATM   33  C3  UNL     1       9.317  44.975 -10.544  1.00  0.00     0.173 C 
HETATM   34  C2  UNL     1      10.481  45.965 -10.467  1.00  0.00     0.014 C 
HETATM   35  C1  UNL     1      11.533  45.541  -9.436  1.00  0.00     0.012 C 
HETATM   36  C38 UNL     1       9.798  47.298 -10.106  1.00  0.00     0.046 C 
BRANCH  36  37
HETATM   37  C39 UNL     1       9.485  48.067 -11.391  1.00  0.00     0.172 C 
BRANCH  37  38
HETATM   38  O7  UNL     1       8.356  48.906 -11.158  1.00  0.00    -0.400 OA
HETATM   39  H52 UNL     1       8.671  49.826 -11.097  1.00  0.00     0.209 HD
ENDBRANCH  37  38
ENDBRANCH  36  37
ENDBRANCH  30  31
BRANCH  30  40
HETATM   40  O2  UNL     1       6.208  47.139  -9.771  1.00  0.00    -0.390 OA
HETATM   41  H9  UNL     1       6.549  46.745 -10.600  1.00  0.00     0.210 HD
ENDBRANCH  30  40
ENDBRANCH  28  30
BRANCH  28  42
HETATM   42  O3  UNL     1       8.122  48.892  -7.203  1.00  0.00    -0.387 OA
HETATM   43  H13 UNL     1       8.384  49.487  -7.936  1.00  0.00     0.210 HD
ENDBRANCH  28  42
ENDBRANCH   1  28
BRANCH   9  44
HETATM   44  C16 UNL     1      -1.330  53.182 -10.586  1.00  0.00    -0.040 A 
HETATM   45  C17 UNL     1      -2.378  54.096 -10.429  1.00  0.00     0.008 A 
HETATM   46  C18 UNL     1      -3.709  53.684 -10.527  1.00  0.00     0.001 A 
HETATM   47  C19 UNL     1      -4.012  52.343 -10.759  1.00  0.00     0.000 A 
HETATM   48  C20 UNL     1      -2.984  51.416 -10.907  1.00  0.00     0.001 A 
HETATM   49  C21 UNL     1      -1.651  51.832 -10.826  1.00  0.00     0.008 A 
ENDBRANCH   9  44
TORSDOF 8
ENDMDL
