MODEL 1
REMARK minimizedAffinity -9.02279186
REMARK  7 active torsions:
REMARK  status: ('A' for Active; 'I' for Inactive)
REMARK    1  A    between atoms: C2_2  and  C3_3 
REMARK    2  A    between atoms: C2_2  and  C4_6 
REMARK    3  A    between atoms: C3_3  and  O2_5 
REMARK    4  A    between atoms: C4_6  and  C6_8 
REMARK    5  A    between atoms: C6_8  and  C7_10 
REMARK    6  A    between atoms: C7_10  and  C8_11 
REMARK    7  A    between atoms: C8_11  and  C10_13 
ROOT
HETATM    1  C10 UNL     1      -2.121   5.084  13.026  1.00  0.00    -0.001 C 
HETATM    2  C11 UNL     1      -1.204   5.686  11.921  1.00  0.00     0.007 C 
HETATM    3  C12 UNL     1      -0.861   7.128  12.339  1.00  0.00     0.015 C 
HETATM    4  C13 UNL     1      -1.286   7.223  13.814  1.00  0.00    -0.013 C 
HETATM    5  C14 UNL     1      -0.114   6.639  14.666  1.00  0.00     0.021 C 
HETATM    6  C15 UNL     1      -1.567   8.595  14.415  1.00  0.00    -0.068 C 
HETATM    7  C16 UNL     1      -2.433   8.711  15.459  1.00  0.00    -0.068 C 
HETATM    8  C17 UNL     1      -3.202   7.504  15.993  1.00  0.00     0.036 C 
HETATM    9  C18 UNL     1      -3.037   6.157  15.252  1.00  0.00     0.015 C 
HETATM   10  C19 UNL     1      -2.601   6.354  13.795  1.00  0.00    -0.029 C 
HETATM   11  C20 UNL     1      -3.774   7.023  13.013  1.00  0.00     0.016 C 
HETATM   12  C21 UNL     1      -2.735  10.101  16.075  1.00  0.00    -0.015 C 
HETATM   13  C22 UNL     1      -3.895  10.662  15.208  1.00  0.00     0.020 C 
HETATM   14  C23 UNL     1      -3.238  10.094  17.552  1.00  0.00     0.021 C 
HETATM   15  C24 UNL     1      -2.139  10.356  18.569  1.00  0.00     0.080 C 
HETATM   16  C25 UNL     1      -1.594  11.753  18.351  1.00  0.00     0.135 C 
HETATM   17  O4  UNL     1      -1.385  12.499  19.311  1.00  0.00    -0.297 OA
HETATM   18  C26 UNL     1      -1.309  12.188  16.902  1.00  0.00     0.018 C 
HETATM   19  C27 UNL     1      -2.291  13.307  16.536  1.00  0.00     0.023 C 
HETATM   20  C28 UNL     1       0.121  12.772  16.881  1.00  0.00     0.023 C 
HETATM   21  C29 UNL     1      -1.392  10.923  15.989  1.00  0.00     0.013 C 
HETATM   22  C30 UNL     1      -0.991  11.121  14.523  1.00  0.00     0.011 C 
HETATM   23  C31 UNL     1      -0.800   9.765  13.828  1.00  0.00     0.036 C 
ENDROOT
BRANCH   1  24
HETATM   24  C8  UNL     1      -3.170   4.092  12.448  1.00  0.00    -0.007 C 
HETATM   25  C9  UNL     1      -2.818   3.586  11.045  1.00  0.00     0.011 C 
BRANCH  24  26
HETATM   26  C7  UNL     1      -4.618   4.641  12.463  1.00  0.00     0.083 C 
BRANCH  26  27
HETATM   27  C6  UNL     1      -5.737   3.651  12.147  1.00  0.00     0.135 C 
HETATM   28  O3  UNL     1      -5.840   3.096  11.053  1.00  0.00    -0.297 OA
BRANCH  27  29
HETATM   29  C4  UNL     1      -6.772   3.414  13.254  1.00  0.00     0.090 C 
HETATM   30  C5  UNL     1      -7.743   2.309  12.824  1.00  0.00     0.023 C 
BRANCH  29  31
HETATM   31  C2  UNL     1      -7.424   4.741  13.596  1.00  0.00     0.017 C 
HETATM   32  C1  UNL     1      -8.107   5.509  12.726  1.00  0.00     0.026 C 
BRANCH  31  33
HETATM   33  C3  UNL     1      -7.283   5.159  15.014  1.00  0.00     0.172 C 
HETATM   34  O1  UNL     1      -6.651   6.129  15.395  1.00  0.00    -0.646 OA
BRANCH  33  35
HETATM   35  O2  UNL     1      -7.921   4.364  15.889  1.00  0.00    -0.773 OA
HETATM   36  H3  UNL     1      -7.730   4.766  16.762  1.00  0.00     0.167 HD
ENDBRANCH  33  35
ENDBRANCH  31  33
ENDBRANCH  29  31
ENDBRANCH  27  29
ENDBRANCH  26  27
ENDBRANCH  24  26
ENDBRANCH   1  24
TORSDOF 7
ENDMDL
