MODEL 1
REMARK minimizedAffinity -9.18280029
REMARK CNNscore 0.433551311
REMARK CNNaffinity 7.13144159
REMARK  18 active torsions:
REMARK  status: ('A' for Active; 'I' for Inactive)
REMARK    1  A    between atoms: C2_2  and  C4_4 
REMARK    2  A    between atoms: C4_4  and  N1_5 
REMARK    3  A    between atoms: C4_4  and  C30_38 
REMARK       I    between atoms: N1_5  and  C5_6 
REMARK    4  A    between atoms: C5_6  and  C6_8 
REMARK    5  A    between atoms: C6_8  and  C7_9 
REMARK    6  A    between atoms: C7_9  and  C8_10 
REMARK    7  A    between atoms: C8_10  and  O3_12 
REMARK    8  A    between atoms: O3_12  and  C9_13 
REMARK    9  A    between atoms: C9_13  and  C10_14 
REMARK   10  A    between atoms: C10_14  and  C11_16 
REMARK   11  A    between atoms: C11_16  and  O5_17 
REMARK   12  A    between atoms: C26_33  and  O7_34 
REMARK       I    between atoms: C30_38  and  N2_40 
REMARK   13  A    between atoms: N2_40  and  C31_41 
REMARK   14  A    between atoms: C31_41  and  C32_42 
REMARK   15  A    between atoms: C32_42  and  C33_43 
REMARK   16  A    between atoms: C32_42  and  C35_47 
REMARK   17  A    between atoms: C33_43  and  C34_44 
REMARK   18  A    between atoms: C34_44  and  O10_46 
ROOT
HETATM    1  C8  UNL     1      -1.057  50.823 -19.883  1.00  0.00     0.259 C 
HETATM    2  O2  UNL     1      -2.214  50.463 -19.699  1.00  0.00    -0.265 OA
ENDROOT
BRANCH   1   3
HETATM    3  C7  UNL     1      -0.348  50.739 -21.211  1.00  0.00     0.120 C 
BRANCH   3   4
HETATM    4  C6  UNL     1       0.701  51.826 -21.413  1.00  0.00     0.112 C 
BRANCH   4   5
HETATM    5  C5  UNL     1       0.406  52.650 -22.649  1.00  0.00     0.218 C 
HETATM    6  N1  UNL     1      -0.517  52.079 -23.496  1.00  0.00    -0.347 N 
HETATM    7  H9  UNL     1      -0.923  51.179 -23.272  1.00  0.00     0.163 HD
HETATM    8  O1  UNL     1       0.926  53.738 -22.857  1.00  0.00    -0.274 OA
BRANCH   6   9
HETATM    9  C4  UNL     1      -0.844  52.698 -24.792  1.00  0.00     0.179 C 
BRANCH   9  10
HETATM   10  C2  UNL     1       0.156  52.211 -25.871  1.00  0.00     0.009 C 
HETATM   11  C1  UNL     1      -0.200  50.820 -26.409  1.00  0.00     0.012 C 
HETATM   12  C3  UNL     1       0.210  53.189 -27.052  1.00  0.00     0.012 C 
ENDBRANCH   9  10
BRANCH   9  13
HETATM   13  C30 UNL     1      -2.300  52.356 -25.196  1.00  0.00     0.240 C 
HETATM   14  O8  UNL     1      -2.847  52.851 -26.180  1.00  0.00    -0.271 OA
HETATM   15  N2  UNL     1      -2.866  51.316 -24.484  1.00  0.00    -0.359 N 
HETATM   16  H43 UNL     1      -2.317  50.889 -23.748  1.00  0.00     0.162 HD
BRANCH  15  17
HETATM   17  C31 UNL     1      -4.076  50.649 -24.931  1.00  0.00     0.132 C 
BRANCH  17  18
HETATM   18  C32 UNL     1      -3.876  49.118 -25.015  1.00  0.00     0.046 C 
BRANCH  18  19
HETATM   19  C33 UNL     1      -4.862  48.427 -25.966  1.00  0.00     0.120 C 
BRANCH  19  20
HETATM   20  C34 UNL     1      -4.467  48.444 -27.417  1.00  0.00     0.140 C 
HETATM   21  O9  UNL     1      -3.342  48.344 -27.875  1.00  0.00    -0.650 OA
BRANCH  20  22
HETATM   22  O10 UNL     1      -5.534  48.532 -28.233  1.00  0.00    -0.776 OA
HETATM   23  H49 UNL     1      -5.155  48.517 -29.136  1.00  0.00     0.167 HD
ENDBRANCH  20  22
ENDBRANCH  19  20
ENDBRANCH  18  19
BRANCH  18  24
HETATM   24  C35 UNL     1      -3.797  48.426 -23.658  1.00  0.00    -0.052 A 
HETATM   25  C36 UNL     1      -2.582  48.228 -22.986  1.00  0.00     0.007 A 
HETATM   26  C37 UNL     1      -2.550  47.586 -21.745  1.00  0.00     0.001 A 
HETATM   27  C38 UNL     1      -3.729  47.132 -21.159  1.00  0.00     0.000 A 
HETATM   28  C39 UNL     1      -4.944  47.328 -21.809  1.00  0.00     0.001 A 
HETATM   29  C40 UNL     1      -4.979  47.976 -23.045  1.00  0.00     0.007 A 
ENDBRANCH  18  24
ENDBRANCH  17  18
ENDBRANCH  15  17
ENDBRANCH   9  13
ENDBRANCH   6   9
ENDBRANCH   4   5
ENDBRANCH   3   4
ENDBRANCH   1   3
BRANCH   1  30
HETATM   30  O3  UNL     1      -0.267  51.404 -18.937  1.00  0.00    -0.314 OA
BRANCH  30  31
HETATM   31  C9  UNL     1      -0.762  51.225 -17.608  1.00  0.00     0.260 C 
BRANCH  31  32
HETATM   32  C10 UNL     1       0.351  51.038 -16.575  1.00  0.00     0.185 C 
HETATM   33  O4  UNL     1       1.482  51.518 -16.763  1.00  0.00    -0.292 OA
BRANCH  32  34
HETATM   34  C11 UNL     1       0.109  50.192 -15.305  1.00  0.00     0.128 C 
HETATM   35  C12 UNL     1       1.342  49.549 -14.624  1.00  0.00     0.047 C 
HETATM   36  C13 UNL     1       1.051  49.536 -13.109  1.00  0.00     0.009 C 
HETATM   37  C14 UNL     1      -0.424  49.902 -13.004  1.00  0.00     0.002 C 
HETATM   38  C15 UNL     1      -0.981  50.368 -11.651  1.00  0.00    -0.002 C 
HETATM   39  C28 UNL     1      -0.621  50.935 -14.141  1.00  0.00     0.001 C 
HETATM   40  C16 UNL     1      -0.646  49.349 -10.539  1.00  0.00     0.010 C 
HETATM   41  C25 UNL     1      -2.531  50.585 -11.805  1.00  0.00     0.031 C 
HETATM   42  C17 UNL     1      -1.342  49.658  -9.214  1.00  0.00     0.035 C 
HETATM   43  C18 UNL     1      -2.820  49.805  -9.471  1.00  0.00    -0.068 C 
HETATM   44  C19 UNL     1      -3.682  48.890  -8.995  1.00  0.00     0.053 C 
HETATM   45  C23 UNL     1      -3.203  50.946 -10.426  1.00  0.00    -0.014 C 
HETATM   46  C20 UNL     1      -5.080  48.824  -9.485  1.00  0.00     0.149 C 
HETATM   47  O6  UNL     1      -5.842  47.976  -9.034  1.00  0.00    -0.293 OA
HETATM   48  C21 UNL     1      -5.466  49.725 -10.630  1.00  0.00     0.084 C 
HETATM   49  C22 UNL     1      -4.750  51.061 -10.505  1.00  0.00     0.022 C 
HETATM   50  C24 UNL     1      -2.714  52.297  -9.846  1.00  0.00     0.020 C 
HETATM   51  C26 UNL     1      -2.875  51.517 -13.004  1.00  0.00     0.124 C 
HETATM   52  C27 UNL     1      -2.146  51.133 -14.315  1.00  0.00     0.045 C 
HETATM   53  C29 UNL     1       0.074  52.289 -13.856  1.00  0.00     0.019 C 
BRANCH  34  54
HETATM   54  O5  UNL     1      -0.722  49.088 -15.738  1.00  0.00    -0.381 OA
HETATM   55  H16 UNL     1      -1.264  49.425 -16.479  1.00  0.00     0.211 HD
ENDBRANCH  34  54
BRANCH  51  56
HETATM   56  O7  UNL     1      -2.598  52.877 -12.700  1.00  0.00    -0.395 OA
HETATM   57  H37 UNL     1      -2.957  53.417 -13.424  1.00  0.00     0.210 HD
ENDBRANCH  51  56
ENDBRANCH  32  34
ENDBRANCH  31  32
ENDBRANCH  30  31
ENDBRANCH   1  30
TORSDOF 18
ENDMDL
