MODEL 1
REMARK minimizedAffinity -8.2691412
REMARK  12 active torsions:
REMARK  status: ('A' for Active; 'I' for Inactive)
REMARK    1  A    between atoms: C2_2  and  C3_3 
REMARK    2  A    between atoms: C2_2  and  C15_20 
REMARK    3  A    between atoms: C3_3  and  O1_4 
REMARK    4  A    between atoms: C3_3  and  C4_5 
REMARK    5  A    between atoms: C4_5  and  C6_7 
REMARK    6  A    between atoms: C6_7  and  O2_8 
REMARK    7  A    between atoms: C6_7  and  C7_9 
REMARK    8  A    between atoms: C7_9  and  C9_11 
REMARK    9  A    between atoms: C10_12  and  C11_13 
REMARK   10  A    between atoms: C12_14  and  C13_15 
REMARK   11  A    between atoms: C12_14  and  C14_17 
REMARK   12  A    between atoms: C13_15  and  O3_16 
REMARK       I    between atoms: C14_17  and  N1_18 
ROOT
HETATM    1  C4  UNL     1      -3.334  51.520 -23.712  1.00  0.00     0.040 C 
HETATM    2  C5  UNL     1      -2.410  52.706 -24.003  1.00  0.00     0.015 C 
ENDROOT
BRANCH   1   3
HETATM    3  C3  UNL     1      -4.399  51.829 -22.608  1.00  0.00     0.130 C 
BRANCH   3   4
HETATM    4  C2  UNL     1      -4.674  50.799 -21.468  1.00  0.00     0.040 C 
HETATM    5  C1  UNL     1      -5.596  49.658 -21.908  1.00  0.00     0.015 C 
BRANCH   4   6
HETATM    6  C15 UNL     1      -3.317  50.231 -20.928  1.00  0.00     0.137 C 
HETATM    7  O5  UNL     1      -2.477  51.342 -20.563  1.00  0.00    -0.349 OA
HETATM    8  C16 UNL     1      -1.121  50.993 -20.279  1.00  0.00     0.161 C 
HETATM    9  C17 UNL     1      -0.371  52.271 -19.950  1.00  0.00     0.079 C 
HETATM   10  C18 UNL     1      -1.001  49.936 -19.181  1.00  0.00     0.071 C 
HETATM   11  O6  UNL     1      -0.535  50.371 -21.427  1.00  0.00    -0.350 OA
HETATM   12  C19 UNL     1      -0.986  48.626 -19.965  1.00  0.00     0.038 C 
HETATM   13  C20 UNL     1      -1.132  49.066 -21.420  1.00  0.00     0.131 C 
HETATM   14  C21 UNL     1      -2.583  49.265 -21.896  1.00  0.00     0.040 C 
HETATM   15  C22 UNL     1      -3.311  47.934 -22.068  1.00  0.00     0.015 C 
ENDBRANCH   4   6
ENDBRANCH   3   4
BRANCH   3  16
HETATM   16  O1  UNL     1      -5.650  51.975 -23.323  1.00  0.00    -0.395 OA
HETATM   17  H6  UNL     1      -5.609  52.820 -23.804  1.00  0.00     0.210 HD
ENDBRANCH   3  16
ENDBRANCH   1   3
BRANCH   1  18
HETATM   18  C6  UNL     1      -3.943  50.872 -24.987  1.00  0.00     0.131 C 
BRANCH  18  19
HETATM   19  O2  UNL     1      -3.870  51.797 -26.068  1.00  0.00    -0.394 OA
HETATM   20  H12 UNL     1      -4.522  51.524 -26.737  1.00  0.00     0.210 HD
ENDBRANCH  18  19
BRANCH  18  21
HETATM   21  C7  UNL     1      -3.280  49.531 -25.432  1.00  0.00     0.033 C 
HETATM   22  C8  UNL     1      -3.995  48.880 -26.622  1.00  0.00     0.017 C 
BRANCH  21  23
HETATM   23  C9  UNL     1      -1.787  49.733 -25.678  1.00  0.00    -0.020 C 
HETATM   24  C10 UNL     1      -1.213  50.593 -26.536  1.00  0.00    -0.003 C 
BRANCH  24  25
HETATM   25  C11 UNL     1       0.223  50.668 -26.719  1.00  0.00     0.014 C 
HETATM   26  C12 UNL     1       0.939  51.741 -27.111  1.00  0.00     0.033 C 
BRANCH  26  27
HETATM   27  C13 UNL     1       2.414  51.744 -27.402  1.00  0.00     0.208 C 
BRANCH  27  28
HETATM   28  O3  UNL     1       3.162  51.093 -26.379  1.00  0.00    -0.396 OA
HETATM   29  H22 UNL     1       3.050  50.137 -26.525  1.00  0.00     0.209 HD
ENDBRANCH  27  28
ENDBRANCH  26  27
BRANCH  26  30
HETATM   30  C14 UNL     1       0.320  53.070 -27.353  1.00  0.00     0.247 C 
HETATM   31  N1  UNL     1      -0.249  53.222 -28.577  1.00  0.00    -0.366 N 
HETATM   32  H23 UNL     1      -0.740  54.084 -28.766  1.00  0.00     0.159 HD
HETATM   33  H24 UNL     1      -0.289  52.477 -29.258  1.00  0.00     0.159 HD
HETATM   34  O4  UNL     1       0.268  53.934 -26.492  1.00  0.00    -0.268 OA
ENDBRANCH  26  30
ENDBRANCH  24  25
ENDBRANCH  21  23
ENDBRANCH  18  21
ENDBRANCH   1  18
TORSDOF 12
ENDMDL
