MODEL 1
REMARK minimizedAffinity -10.3186083
REMARK  4 active torsions:
REMARK  status: ('A' for Active; 'I' for Inactive)
REMARK    1  A    between atoms: C4_4  and  C5_5 
REMARK    2  A    between atoms: C5_5  and  C6_6 
REMARK    3  A    between atoms: C6_6  and  C7_7 
REMARK    4  A    between atoms: C9_9  and  O1_10 
ROOT
HETATM    1  C7  UNL     1       1.382   6.879  11.131  1.00  0.00    -0.007 C 
HETATM    2  C8  UNL     1       0.840   5.449  11.146  1.00  0.00     0.038 C 
HETATM    3  C9  UNL     1      -0.657   5.320  11.459  1.00  0.00     0.131 C 
HETATM    4  C10 UNL     1      -1.104   6.091  12.766  1.00  0.00     0.013 C 
HETATM    5  C11 UNL     1      -0.459   5.348  13.978  1.00  0.00     0.023 C 
HETATM    6  C12 UNL     1      -2.648   6.071  13.038  1.00  0.00    -0.067 C 
HETATM    7  C13 UNL     1      -3.460   5.074  12.625  1.00  0.00    -0.022 C 
HETATM    8  C14 UNL     1      -4.930   4.957  12.907  1.00  0.00     0.034 C 
HETATM    9  C15 UNL     1      -5.551   6.202  13.568  1.00  0.00     0.013 C 
HETATM   10  C16 UNL     1      -7.057   6.017  13.969  1.00  0.00     0.018 C 
HETATM   11  C17 UNL     1      -7.909   5.902  12.679  1.00  0.00     0.023 C 
HETATM   12  C18 UNL     1      -7.377   4.782  14.825  1.00  0.00     0.023 C 
HETATM   13  C19 UNL     1      -7.536   7.252  14.742  1.00  0.00     0.135 C 
HETATM   14  O2  UNL     1      -8.660   7.737  14.583  1.00  0.00    -0.297 OA
HETATM   15  C20 UNL     1      -6.628   7.804  15.814  1.00  0.00     0.080 C 
HETATM   16  C21 UNL     1      -5.238   8.060  15.261  1.00  0.00     0.017 C 
HETATM   17  C22 UNL     1      -4.573   6.803  14.642  1.00  0.00    -0.031 C 
HETATM   18  C23 UNL     1      -4.211   5.814  15.777  1.00  0.00     0.016 C 
HETATM   19  C24 UNL     1      -3.259   7.225  13.850  1.00  0.00     0.024 C 
HETATM   20  C25 UNL     1      -2.222   7.959  14.704  1.00  0.00     0.010 C 
HETATM   21  C26 UNL     1      -0.953   8.381  13.955  1.00  0.00     0.011 C 
HETATM   22  C27 UNL     1      -0.614   7.603  12.644  1.00  0.00    -0.027 C 
HETATM   23  C28 UNL     1      -1.320   8.339  11.457  1.00  0.00     0.016 C 
HETATM   24  C29 UNL     1       0.955   7.668  12.402  1.00  0.00    -0.005 C 
HETATM   25  C30 UNL     1       1.511   9.106  12.352  1.00  0.00     0.011 C 
ENDROOT
BRANCH   1  26
HETATM   26  C6  UNL     1       2.907   6.878  10.846  1.00  0.00     0.009 C 
BRANCH  26  27
HETATM   27  C5  UNL     1       3.375   5.941   9.726  1.00  0.00     0.028 C 
BRANCH  27  28
HETATM   28  C4  UNL     1       2.558   6.148   8.477  1.00  0.00    -0.025 C 
HETATM   29  C2  UNL     1       2.462   7.267   7.733  1.00  0.00    -0.091 C 
HETATM   30  C1  UNL     1       1.628   7.286   6.478  1.00  0.00     0.042 C 
HETATM   31  C3  UNL     1       3.142   8.573   8.042  1.00  0.00     0.042 C 
ENDBRANCH  27  28
ENDBRANCH  26  27
ENDBRANCH   1  26
BRANCH   3  32
HETATM   32  O1  UNL     1      -0.890   3.906  11.559  1.00  0.00    -0.394 OA
HETATM   33  H16 UNL     1      -0.697   3.517  10.688  1.00  0.00     0.210 HD
ENDBRANCH   3  32
TORSDOF 4
ENDMDL
