MODEL 1
REMARK minimizedAffinity -9.50091362
REMARK CNNscore 0.430380851
REMARK CNNaffinity 6.90399313
REMARK  18 active torsions:
REMARK  status: ('A' for Active; 'I' for Inactive)
REMARK    1  A    between atoms: C2_2  and  C4_4 
REMARK    2  A    between atoms: C4_4  and  N1_5 
REMARK    3  A    between atoms: C4_4  and  C30_38 
REMARK       I    between atoms: N1_5  and  C5_6 
REMARK    4  A    between atoms: C5_6  and  C6_8 
REMARK    5  A    between atoms: C6_8  and  C7_9 
REMARK    6  A    between atoms: C7_9  and  C8_10 
REMARK    7  A    between atoms: C8_10  and  O3_12 
REMARK    8  A    between atoms: O3_12  and  C9_13 
REMARK    9  A    between atoms: C9_13  and  C10_14 
REMARK   10  A    between atoms: C10_14  and  C11_16 
REMARK   11  A    between atoms: C11_16  and  O5_17 
REMARK   12  A    between atoms: C26_33  and  O7_34 
REMARK       I    between atoms: C30_38  and  N2_40 
REMARK   13  A    between atoms: N2_40  and  C31_41 
REMARK   14  A    between atoms: C31_41  and  C32_42 
REMARK   15  A    between atoms: C32_42  and  C33_43 
REMARK   16  A    between atoms: C32_42  and  C35_47 
REMARK   17  A    between atoms: C33_43  and  C34_44 
REMARK   18  A    between atoms: C34_44  and  O10_46 
ROOT
HETATM    1  C8  UNL     1       5.928   8.621  11.285  1.00  0.00     0.259 C 
HETATM    2  O2  UNL     1       5.460   9.547  10.631  1.00  0.00    -0.265 OA
ENDROOT
BRANCH   1   3
HETATM    3  C7  UNL     1       5.264   7.269  11.411  1.00  0.00     0.120 C 
BRANCH   3   4
HETATM    4  C6  UNL     1       4.295   6.952  10.277  1.00  0.00     0.112 C 
BRANCH   4   5
HETATM    5  C5  UNL     1       2.855   7.241  10.640  1.00  0.00     0.218 C 
HETATM    6  N1  UNL     1       1.979   6.370  10.023  1.00  0.00    -0.347 N 
HETATM    7  H9  UNL     1       2.310   5.981   9.148  1.00  0.00     0.163 HD
HETATM    8  O1  UNL     1       2.506   8.140  11.395  1.00  0.00    -0.274 OA
BRANCH   6   9
HETATM    9  C4  UNL     1       0.535   6.606  10.081  1.00  0.00     0.179 C 
BRANCH   9  10
HETATM   10  C2  UNL     1       0.240   8.118  10.217  1.00  0.00     0.009 C 
HETATM   11  C1  UNL     1      -0.127   8.763   8.879  1.00  0.00     0.012 C 
HETATM   12  C3  UNL     1      -0.832   8.446  11.262  1.00  0.00     0.012 C 
ENDBRANCH   9  10
BRANCH   9  13
HETATM   13  C30 UNL     1      -0.023   5.765  11.254  1.00  0.00     0.240 C 
HETATM   14  O8  UNL     1       0.335   5.945  12.418  1.00  0.00    -0.271 OA
HETATM   15  N2  UNL     1      -0.976   4.837  10.897  1.00  0.00    -0.359 N 
HETATM   16  H43 UNL     1      -1.168   4.678   9.913  1.00  0.00     0.162 HD
BRANCH  15  17
HETATM   17  C31 UNL     1      -1.623   3.966  11.862  1.00  0.00     0.132 C 
BRANCH  17  18
HETATM   18  C32 UNL     1      -2.551   2.926  11.201  1.00  0.00     0.046 C 
BRANCH  18  19
HETATM   19  C33 UNL     1      -2.041   1.492  11.406  1.00  0.00     0.120 C 
BRANCH  19  20
HETATM   20  C34 UNL     1      -0.822   1.227  10.564  1.00  0.00     0.140 C 
HETATM   21  O9  UNL     1      -0.768   0.550   9.550  1.00  0.00    -0.650 OA
BRANCH  20  22
HETATM   22  O10 UNL     1       0.270   1.868  11.016  1.00  0.00    -0.776 OA
HETATM   23  H49 UNL     1       0.973   1.621  10.380  1.00  0.00     0.167 HD
ENDBRANCH  20  22
ENDBRANCH  19  20
ENDBRANCH  18  19
BRANCH  18  24
HETATM   24  C35 UNL     1      -3.979   3.087  11.713  1.00  0.00    -0.052 A 
HETATM   25  C36 UNL     1      -4.941   2.112  11.407  1.00  0.00     0.007 A 
HETATM   26  C37 UNL     1      -6.252   2.236  11.869  1.00  0.00     0.001 A 
HETATM   27  C38 UNL     1      -6.619   3.334  12.644  1.00  0.00     0.000 A 
HETATM   28  C39 UNL     1      -5.674   4.306  12.962  1.00  0.00     0.001 A 
HETATM   29  C40 UNL     1      -4.362   4.184  12.503  1.00  0.00     0.007 A 
ENDBRANCH  18  24
ENDBRANCH  17  18
ENDBRANCH  15  17
ENDBRANCH   9  13
ENDBRANCH   6   9
ENDBRANCH   4   5
ENDBRANCH   3   4
ENDBRANCH   1   3
BRANCH   1  30
HETATM   30  O3  UNL     1       7.098   8.688  11.971  1.00  0.00    -0.314 OA
BRANCH  30  31
HETATM   31  C9  UNL     1       7.163   7.867  13.138  1.00  0.00     0.260 C 
BRANCH  31  32
HETATM   32  C10 UNL     1       6.644   8.565  14.391  1.00  0.00     0.185 C 
HETATM   33  O4  UNL     1       5.489   8.999  14.467  1.00  0.00    -0.292 OA
BRANCH  32  34
HETATM   34  C11 UNL     1       7.569   8.668  15.619  1.00  0.00     0.128 C 
HETATM   35  C12 UNL     1       8.989   8.061  15.483  1.00  0.00     0.047 C 
HETATM   36  C13 UNL     1       9.928   8.951  16.323  1.00  0.00     0.009 C 
HETATM   37  C14 UNL     1       8.984   9.855  17.106  1.00  0.00     0.002 C 
HETATM   38  C15 UNL     1       9.551  11.125  17.755  1.00  0.00    -0.002 C 
HETATM   39  C28 UNL     1       7.829  10.126  16.114  1.00  0.00     0.001 C 
HETATM   40  C16 UNL     1      10.759  10.783  18.653  1.00  0.00     0.010 C 
HETATM   41  C25 UNL     1       8.394  11.814  18.565  1.00  0.00     0.031 C 
HETATM   42  C17 UNL     1      11.228  11.962  19.506  1.00  0.00     0.035 C 
HETATM   43  C18 UNL     1      10.048  12.520  20.257  1.00  0.00    -0.068 C 
HETATM   44  C19 UNL     1       9.977  12.400  21.594  1.00  0.00     0.053 C 
HETATM   45  C23 UNL     1       8.914  13.061  19.376  1.00  0.00    -0.014 C 
HETATM   46  C20 UNL     1       8.722  12.683  22.325  1.00  0.00     0.149 C 
HETATM   47  O6  UNL     1       8.708  12.632  23.550  1.00  0.00    -0.293 OA
HETATM   48  C21 UNL     1       7.475  12.913  21.508  1.00  0.00     0.084 C 
HETATM   49  C22 UNL     1       7.818  13.716  20.265  1.00  0.00     0.022 C 
HETATM   50  C24 UNL     1       9.450  14.205  18.474  1.00  0.00     0.020 C 
HETATM   51  C26 UNL     1       7.128  12.050  17.691  1.00  0.00     0.124 C 
HETATM   52  C27 UNL     1       6.684  10.796  16.908  1.00  0.00     0.045 C 
HETATM   53  C29 UNL     1       8.244  11.011  14.908  1.00  0.00     0.019 C 
BRANCH  34  54
HETATM   54  O5  UNL     1       6.902   7.909  16.645  1.00  0.00    -0.381 OA
HETATM   55  H16 UNL     1       5.952   8.150  16.597  1.00  0.00     0.211 HD
ENDBRANCH  34  54
BRANCH  51  56
HETATM   56  O7  UNL     1       7.331  13.124  16.787  1.00  0.00    -0.395 OA
HETATM   57  H37 UNL     1       6.460  13.406  16.453  1.00  0.00     0.210 HD
ENDBRANCH  51  56
ENDBRANCH  32  34
ENDBRANCH  31  32
ENDBRANCH  30  31
ENDBRANCH   1  30
TORSDOF 18
ENDMDL
