MODEL 1
REMARK minimizedAffinity -9.46212864
REMARK  7 active torsions:
REMARK  status: ('A' for Active; 'I' for Inactive)
REMARK    1  A    between atoms: C2_2  and  C3_3 
REMARK    2  A    between atoms: C4_5  and  C5_6 
REMARK    3  A    between atoms: C5_6  and  C6_7 
REMARK    4  A    between atoms: C6_7  and  C7_8 
REMARK    5  A    between atoms: C7_8  and  C9_10 
REMARK    6  A    between atoms: C11_12  and  O2_13 
REMARK    7  A    between atoms: C30_33  and  O4_34 
ROOT
HETATM    1  C9  UNL     1      -3.876  50.376 -25.319  1.00  0.00     0.001 C 
HETATM    2  C10 UNL     1      -5.368  50.346 -24.866  1.00  0.00     0.038 C 
HETATM    3  C11 UNL     1      -5.374  50.240 -23.330  1.00  0.00     0.132 C 
HETATM    4  C12 UNL     1      -3.956  50.688 -22.908  1.00  0.00     0.016 C 
HETATM    5  C13 UNL     1      -3.885  52.253 -22.949  1.00  0.00     0.023 C 
HETATM    6  C14 UNL     1      -3.440  50.290 -21.525  1.00  0.00    -0.037 C 
HETATM    7  C15 UNL     1      -2.099  50.206 -21.317  1.00  0.00    -0.065 C 
HETATM    8  C16 UNL     1      -1.101  50.359 -22.477  1.00  0.00     0.036 C 
HETATM    9  C17 UNL     1      -1.665  50.499 -23.909  1.00  0.00     0.015 C 
HETATM   10  C18 UNL     1      -3.102  49.973 -24.022  1.00  0.00    -0.026 C 
HETATM   11  C19 UNL     1      -3.078  48.419 -23.879  1.00  0.00     0.016 C 
HETATM   12  C20 UNL     1      -1.497  49.937 -19.910  1.00  0.00    -0.015 C 
HETATM   13  C21 UNL     1      -0.957  48.487 -19.921  1.00  0.00     0.020 C 
HETATM   14  C22 UNL     1      -0.317  50.917 -19.633  1.00  0.00     0.021 C 
HETATM   15  C23 UNL     1      -0.059  51.244 -18.165  1.00  0.00     0.080 C 
HETATM   16  C24 UNL     1      -0.584  50.177 -17.237  1.00  0.00     0.135 C 
HETATM   17  O3  UNL     1       0.159  49.635 -16.420  1.00  0.00    -0.297 OA
HETATM   18  C25 UNL     1      -2.084  49.870 -17.329  1.00  0.00     0.018 C 
HETATM   19  C26 UNL     1      -2.790  50.816 -16.336  1.00  0.00     0.023 C 
HETATM   20  C27 UNL     1      -2.353  48.429 -16.854  1.00  0.00     0.023 C 
HETATM   21  C28 UNL     1      -2.575  50.170 -18.788  1.00  0.00     0.016 C 
HETATM   22  C29 UNL     1      -3.896  49.475 -19.145  1.00  0.00     0.043 C 
HETATM   23  C30 UNL     1      -4.469  50.024 -20.450  1.00  0.00     0.148 C 
ENDROOT
BRANCH   1  24
HETATM   24  C7  UNL     1      -3.645  49.579 -26.634  1.00  0.00    -0.013 C 
HETATM   25  C8  UNL     1      -2.696  48.389 -26.456  1.00  0.00     0.010 C 
BRANCH  24  26
HETATM   26  C6  UNL     1      -3.142  50.476 -27.799  1.00  0.00     0.008 C 
BRANCH  26  27
HETATM   27  C5  UNL     1      -2.313  51.691 -27.370  1.00  0.00     0.028 C 
BRANCH  27  28
HETATM   28  C4  UNL     1      -0.836  51.412 -27.473  1.00  0.00    -0.017 C 
HETATM   29  C2  UNL     1       0.144  52.266 -27.821  1.00  0.00    -0.028 C 
HETATM   30  C1  UNL     1       1.580  51.844 -27.929  1.00  0.00     0.051 C 
BRANCH  29  31
HETATM   31  C3  UNL     1      -0.097  53.713 -28.098  1.00  0.00     0.265 C 
HETATM   32  O1  UNL     1      -0.354  54.547 -27.240  1.00  0.00    -0.302 OA
ENDBRANCH  29  31
ENDBRANCH  27  28
ENDBRANCH  26  27
ENDBRANCH  24  26
ENDBRANCH   1  24
BRANCH   3  33
HETATM   33  O2  UNL     1      -6.404  51.030 -22.746  1.00  0.00    -0.394 OA
HETATM   34  H18 UNL     1      -7.234  50.804 -23.201  1.00  0.00     0.210 HD
ENDBRANCH   3  33
BRANCH  23  35
HETATM   35  O4  UNL     1      -5.158  51.236 -20.161  1.00  0.00    -0.391 OA
HETATM   36  H46 UNL     1      -5.763  51.385 -20.918  1.00  0.00     0.210 HD
ENDBRANCH  23  35
TORSDOF 7
ENDMDL
