MODEL 1
REMARK minimizedAffinity -9.96914005
REMARK CNNscore 0.762007892
REMARK CNNaffinity 7.47298098
REMARK  11 active torsions:
REMARK  status: ('A' for Active; 'I' for Inactive)
REMARK    1  A    between atoms: C3_4  and  O2_5 
REMARK    2  A    between atoms: O2_5  and  C4_6 
REMARK    3  A    between atoms: C7_9  and  C8_10 
REMARK    4  A    between atoms: N1_11  and  C9_13 
REMARK    5  A    between atoms: C9_13  and  C10_14 
REMARK    6  A    between atoms: C10_14  and  O3_15 
REMARK    7  A    between atoms: C16_21  and  C17_22 
REMARK    8  A    between atoms: C23_30  and  O6_31 
REMARK    9  A    between atoms: C27_35  and  O7_36 
REMARK   10  A    between atoms: C30_39  and  O8_40 
REMARK   11  A    between atoms: C31_41  and  O9_42 
ROOT
HETATM    1  C4  UNL     1      -0.091   5.138  11.048  1.00  0.00     0.127 C 
HETATM    2  C5  UNL     1      -0.362   4.307  12.304  1.00  0.00     0.033 C 
HETATM    3  C6  UNL     1       0.248   4.944  13.550  1.00  0.00     0.021 C 
HETATM    4  C7  UNL     1      -0.230   6.404  13.805  1.00  0.00     0.026 C 
HETATM    5  C11 UNL     1      -1.765   6.469  14.172  1.00  0.00     0.009 C 
HETATM    6  C12 UNL     1      -2.165   5.699  15.429  1.00  0.00     0.007 C 
HETATM    7  C13 UNL     1      -3.676   5.476  15.491  1.00  0.00     0.013 C 
HETATM    8  C14 UNL     1      -4.563   6.638  14.975  1.00  0.00    -0.005 C 
HETATM    9  C15 UNL     1      -5.764   6.739  15.954  1.00  0.00     0.019 C 
HETATM   10  C16 UNL     1      -5.069   6.442  13.503  1.00  0.00     0.028 C 
HETATM   11  C21 UNL     1      -5.478   7.854  13.035  1.00  0.00     0.013 C 
HETATM   12  C22 UNL     1      -4.795   8.833  13.990  1.00  0.00     0.040 C 
HETATM   13  C23 UNL     1      -3.809   8.004  14.837  1.00  0.00     0.070 C 
HETATM   14  C24 UNL     1      -2.327   7.920  14.294  1.00  0.00     0.026 C 
HETATM   15  C25 UNL     1      -2.035   8.722  13.020  1.00  0.00     0.011 C 
HETATM   16  C26 UNL     1      -0.555   8.680  12.651  1.00  0.00     0.039 C 
HETATM   17  C27 UNL     1       0.017   7.260  12.507  1.00  0.00     0.073 C 
HETATM   18  C28 UNL     1      -0.580   6.579  11.243  1.00  0.00     0.071 C 
ENDROOT
BRANCH   1  19
HETATM   19  O2  UNL     1       1.298   5.213  10.717  1.00  0.00    -0.356 OA
BRANCH  19  20
HETATM   20  C3  UNL     1       1.696   6.458  10.138  1.00  0.00     0.263 C 
HETATM   21  O1  UNL     1       1.334   6.441   8.762  1.00  0.00    -0.354 OA
HETATM   22  C2  UNL     1       1.663   7.659   8.092  1.00  0.00     0.151 C 
HETATM   23  C1  UNL     1       1.168   7.524   6.656  1.00  0.00     0.042 C 
HETATM   24  C31 UNL     1       3.182   7.912   8.139  1.00  0.00     0.175 C 
HETATM   25  C30 UNL     1       3.694   7.840   9.586  1.00  0.00     0.154 C 
HETATM   26  C29 UNL     1       3.212   6.574  10.272  1.00  0.00     0.095 C 
BRANCH  24  27
HETATM   27  O9  UNL     1       3.509   9.202   7.612  1.00  0.00    -0.390 OA
HETATM   28  H47 UNL     1       3.537   9.110   6.644  1.00  0.00     0.210 HD
ENDBRANCH  24  27
BRANCH  25  29
HETATM   29  O8  UNL     1       3.232   8.980  10.321  1.00  0.00    -0.393 OA
HETATM   30  H45 UNL     1       3.378   9.736   9.715  1.00  0.00     0.210 HD
ENDBRANCH  25  29
ENDBRANCH  19  20
ENDBRANCH   1  19
BRANCH  17  31
HETATM   31  O7  UNL     1       1.424   7.456  12.278  1.00  0.00    -0.389 OA
HETATM   32  H39 UNL     1       1.789   6.615  11.928  1.00  0.00     0.210 HD
ENDBRANCH  17  31
BRANCH   4  33
HETATM   33  C8  UNL     1       0.621   6.981  14.947  1.00  0.00     0.068 C 
HETATM   34  N1  UNL     1       1.874   6.685  15.072  1.00  0.00    -0.399 N 
ATOM     35  H1  UNL     1       2.319   5.957  14.513  1.00  0.00     0.158 HD
BRANCH  34  36
HETATM   36  C9  UNL     1       2.616   7.465  16.070  1.00  0.00     0.144 C 
BRANCH  36  37
HETATM   37  C10 UNL     1       1.793   8.713  16.385  1.00  0.00     0.183 C 
BRANCH  37  38
HETATM   38  O3  UNL     1       2.220   9.263  17.638  1.00  0.00    -0.399 OA
HETATM   39  H16 UNL     1       2.087   8.542  18.297  1.00  0.00     0.209 HD
ENDBRANCH  37  38
ENDBRANCH  36  37
ENDBRANCH  34  36
ENDBRANCH   4  33
BRANCH  13  40
HETATM   40  O6  UNL     1      -3.728   8.619  16.130  1.00  0.00    -0.389 OA
HETATM   41  H33 UNL     1      -3.334   9.502  16.029  1.00  0.00     0.210 HD
ENDBRANCH  13  40
BRANCH  10  42
HETATM   42  C17 UNL     1      -6.081   5.369  13.211  1.00  0.00    -0.045 A 
HETATM   43  C18 UNL     1      -5.792   4.097  12.928  1.00  0.00     0.087 A 
HETATM   44  C19 UNL     1      -7.053   3.406  12.676  1.00  0.00     0.283 A 
HETATM   45  O4  UNL     1      -7.149   2.226  12.403  1.00  0.00    -0.260 OA
HETATM   46  O5  UNL     1      -8.075   4.295  12.792  1.00  0.00    -0.314 OA
HETATM   47  C20 UNL     1      -7.548   5.580  13.120  1.00  0.00     0.213 A 
ENDBRANCH  10  42
TORSDOF 11
ENDMDL
