MODEL 1
REMARK minimizedAffinity -9.55960274
REMARK  6 active torsions:
REMARK  status: ('A' for Active; 'I' for Inactive)
REMARK    1  A    between atoms: C2_2  and  C9_11 
REMARK    2  A    between atoms: C3_3  and  C4_4 
REMARK    3  A    between atoms: C4_4  and  O1_5 
REMARK    4  A    between atoms: C4_4  and  C5_6 
REMARK    5  A    between atoms: C16_18  and  O3_19 
REMARK    6  A    between atoms: C18_21  and  C19_22 
ROOT
HETATM    1  C9  UNL     1       0.035  51.255 -21.021  1.00  0.00     0.019 C 
HETATM    2  C10 UNL     1      -0.035  51.656 -19.518  1.00  0.00     0.010 C 
HETATM    3  C11 UNL     1      -1.464  51.325 -19.042  1.00  0.00     0.011 C 
HETATM    4  C12 UNL     1      -1.954  50.221 -20.004  1.00  0.00    -0.032 C 
HETATM    5  C13 UNL     1      -1.220  48.907 -19.577  1.00  0.00     0.016 C 
HETATM    6  C14 UNL     1      -1.406  50.793 -21.336  1.00  0.00     0.005 C 
HETATM    7  C15 UNL     1      -1.616  49.820 -22.485  1.00  0.00     0.038 C 
HETATM    8  C16 UNL     1      -3.105  49.451 -22.642  1.00  0.00     0.124 C 
HETATM    9  C17 UNL     1      -3.783  48.961 -21.322  1.00  0.00     0.039 C 
HETATM   10  C18 UNL     1      -5.272  48.407 -21.463  1.00  0.00     0.025 C 
HETATM   11  C20 UNL     1      -5.289  47.128 -22.375  1.00  0.00     0.025 C 
HETATM   12  C21 UNL     1      -6.389  46.108 -22.103  1.00  0.00     0.080 C 
HETATM   13  C22 UNL     1      -7.566  46.720 -21.397  1.00  0.00     0.135 C 
HETATM   14  O5  UNL     1      -8.697  46.617 -21.868  1.00  0.00    -0.297 OA
HETATM   15  C23 UNL     1      -7.279  47.366 -20.041  1.00  0.00     0.018 C 
HETATM   16  C24 UNL     1      -8.410  48.348 -19.688  1.00  0.00     0.023 C 
HETATM   17  C25 UNL     1      -7.343  46.229 -18.993  1.00  0.00     0.023 C 
HETATM   18  C26 UNL     1      -5.827  47.985 -20.055  1.00  0.00     0.016 C 
HETATM   19  C27 UNL     1      -5.607  49.035 -18.954  1.00  0.00     0.008 C 
HETATM   20  C28 UNL     1      -4.133  49.434 -18.833  1.00  0.00     0.011 C 
HETATM   21  C29 UNL     1      -3.534  50.000 -20.142  1.00  0.00    -0.029 C 
HETATM   22  C30 UNL     1      -4.247  51.359 -20.416  1.00  0.00     0.016 C 
ENDROOT
BRANCH   1  23
HETATM   23  C2  UNL     1       0.545  52.299 -22.016  1.00  0.00    -0.081 C 
HETATM   24  C1  UNL     1       1.367  53.412 -21.411  1.00  0.00     0.043 C 
HETATM   25  C3  UNL     1       0.287  52.257 -23.343  1.00  0.00     0.010 C 
BRANCH  25  26
HETATM   26  C4  UNL     1       0.794  53.198 -24.407  1.00  0.00     0.173 C 
BRANCH  26  27
HETATM   27  O1  UNL     1       1.180  54.396 -23.731  1.00  0.00    -0.389 OA
HETATM   28  H6  UNL     1       1.966  54.167 -23.208  1.00  0.00     0.210 HD
ENDBRANCH  26  27
BRANCH  26  29
HETATM   29  C5  UNL     1      -0.240  53.553 -25.438  1.00  0.00     0.188 A 
HETATM   30  O2  UNL     1       0.207  54.432 -26.484  1.00  0.00    -0.367 OA
HETATM   31  C6  UNL     1      -0.160  53.106 -26.893  1.00  0.00     0.083 A 
HETATM   32  C7  UNL     1      -1.422  53.052 -27.695  1.00  0.00     0.048 C 
HETATM   33  C8  UNL     1       0.991  52.292 -27.395  1.00  0.00     0.048 C 
ENDBRANCH  26  29
ENDBRANCH  25  26
ENDBRANCH   1  23
BRANCH   8  34
HETATM   34  O3  UNL     1      -3.195  48.467 -23.667  1.00  0.00    -0.395 OA
HETATM   35  H26 UNL     1      -2.538  47.772 -23.469  1.00  0.00     0.210 HD
ENDBRANCH   8  34
BRANCH  10  36
HETATM   36  C19 UNL     1      -6.107  49.454 -22.211  1.00  0.00     0.241 C 
HETATM   37  O4  UNL     1      -6.964  50.165 -21.703  1.00  0.00    -0.306 OA
ENDBRANCH  10  36
TORSDOF 6
ENDMDL
