MODEL 1
REMARK minimizedAffinity -9.46969128
REMARK  6 active torsions:
REMARK  status: ('A' for Active; 'I' for Inactive)
REMARK    1  A    between atoms: C2_2  and  C30_32 
REMARK    2  A    between atoms: C3_3  and  C4_4 
REMARK    3  A    between atoms: C4_4  and  C5_6 
REMARK    4  A    between atoms: C5_6  and  C6_7 
REMARK    5  A    between atoms: C6_7  and  C8_9 
REMARK    6  A    between atoms: C30_32  and  O4_34 
ROOT
HETATM    1  C8  UNL     1      -0.928   6.055  11.888  1.00  0.00    -0.001 C 
HETATM    2  C9  UNL     1      -1.669   7.246  12.567  1.00  0.00     0.007 C 
HETATM    3  C10 UNL     1      -0.614   8.310  12.915  1.00  0.00     0.015 C 
HETATM    4  C11 UNL     1       0.646   7.884  12.134  1.00  0.00    -0.013 C 
HETATM    5  C12 UNL     1       0.467   8.438  10.688  1.00  0.00     0.021 C 
HETATM    6  C13 UNL     1       1.995   8.392  12.614  1.00  0.00    -0.070 C 
HETATM    7  C14 UNL     1       2.152   9.498  13.364  1.00  0.00    -0.022 C 
HETATM    8  C15 UNL     1       3.511  10.020  13.720  1.00  0.00     0.034 C 
HETATM    9  C16 UNL     1       4.433   9.844  12.503  1.00  0.00     0.013 C 
HETATM   10  C17 UNL     1       5.770  10.647  12.572  1.00  0.00     0.018 C 
HETATM   11  C18 UNL     1       5.520  12.119  12.180  1.00  0.00     0.023 C 
HETATM   12  C19 UNL     1       6.421  10.643  13.968  1.00  0.00     0.023 C 
HETATM   13  C20 UNL     1       6.756  10.087  11.536  1.00  0.00     0.135 C 
HETATM   14  O2  UNL     1       7.972  10.268  11.628  1.00  0.00    -0.297 OA
HETATM   15  C21 UNL     1       6.182   9.393  10.319  1.00  0.00     0.080 C 
HETATM   16  C22 UNL     1       5.094   8.357  10.626  1.00  0.00     0.017 C 
HETATM   17  C23 UNL     1       4.588   8.335  12.092  1.00  0.00    -0.031 C 
HETATM   18  C24 UNL     1       5.634   7.569  12.949  1.00  0.00     0.016 C 
HETATM   19  C25 UNL     1       3.217   7.534  12.277  1.00  0.00     0.024 C 
HETATM   20  C26 UNL     1       2.944   6.449  11.205  1.00  0.00     0.010 C 
HETATM   21  C27 UNL     1       1.619   5.667  11.348  1.00  0.00     0.011 C 
HETATM   22  C28 UNL     1       0.567   6.320  12.270  1.00  0.00    -0.029 C 
HETATM   23  C29 UNL     1       0.800   5.813  13.729  1.00  0.00     0.016 C 
ENDROOT
BRANCH   1  24
HETATM   24  C6  UNL     1      -1.588   4.686  12.229  1.00  0.00    -0.007 C 
HETATM   25  C7  UNL     1      -1.612   3.734  11.027  1.00  0.00     0.011 C 
BRANCH  24  26
HETATM   26  C5  UNL     1      -3.036   4.896  12.732  1.00  0.00     0.087 C 
BRANCH  26  27
HETATM   27  C4  UNL     1      -4.066   4.193  11.865  1.00  0.00     0.150 C 
HETATM   28  O1  UNL     1      -3.836   3.924  10.688  1.00  0.00    -0.293 OA
BRANCH  27  29
HETATM   29  C3  UNL     1      -5.375   3.875  12.503  1.00  0.00     0.063 C 
HETATM   30  C2  UNL     1      -6.148   2.819  12.190  1.00  0.00     0.015 C 
HETATM   31  C1  UNL     1      -5.832   1.734  11.207  1.00  0.00     0.055 C 
BRANCH  30  32
HETATM   32  C30 UNL     1      -7.422   2.740  12.939  1.00  0.00     0.171 C 
HETATM   33  O3  UNL     1      -7.812   3.529  13.782  1.00  0.00    -0.646 OA
BRANCH  32  34
HETATM   34  O4  UNL     1      -8.162   1.678  12.589  1.00  0.00    -0.773 OA
HETATM   35  H44 UNL     1      -8.966   1.754  13.144  1.00  0.00     0.167 HD
ENDBRANCH  32  34
ENDBRANCH  30  32
ENDBRANCH  27  29
ENDBRANCH  26  27
ENDBRANCH  24  26
ENDBRANCH   1  24
TORSDOF 6
ENDMDL
