MODEL 1
REMARK minimizedAffinity -9.63236427
REMARK  5 active torsions:
REMARK  status: ('A' for Active; 'I' for Inactive)
REMARK    1  A    between atoms: C2_2  and  C4_4 
REMARK    2  A    between atoms: C7_7  and  C8_8 
REMARK    3  A    between atoms: C8_8  and  O2_10 
REMARK    4  A    between atoms: C22_25  and  C24_27 
REMARK    5  A    between atoms: C24_27  and  O4_28 
ROOT
HETATM    1  C4  UNL     1       0.474  52.533 -23.043  1.00  0.00     0.019 C 
HETATM    2  C5  UNL     1       1.025  53.505 -24.122  1.00  0.00     0.011 C 
HETATM    3  C6  UNL     1      -0.082  53.685 -25.174  1.00  0.00     0.021 C 
HETATM    4  C7  UNL     1      -0.937  52.423 -25.033  1.00  0.00     0.050 C 
HETATM    5  C9  UNL     1      -2.376  52.548 -25.556  1.00  0.00     0.022 C 
HETATM    6  C10 UNL     1      -3.214  51.316 -25.149  1.00  0.00     0.011 C 
HETATM    7  C11 UNL     1      -3.231  51.011 -23.608  1.00  0.00    -0.032 C 
HETATM    8  C12 UNL     1      -4.049  52.181 -22.962  1.00  0.00     0.016 C 
HETATM    9  C13 UNL     1      -1.743  51.013 -23.064  1.00  0.00     0.000 C 
HETATM   10  C14 UNL     1      -1.690  50.728 -21.559  1.00  0.00     0.006 C 
HETATM   11  C15 UNL     1      -2.377  49.409 -21.191  1.00  0.00     0.006 C 
HETATM   12  C16 UNL     1      -3.833  49.332 -21.701  1.00  0.00     0.003 C 
HETATM   13  C17 UNL     1      -4.671  48.123 -21.098  1.00  0.00    -0.035 C 
HETATM   14  C18 UNL     1      -4.002  46.750 -21.344  1.00  0.00     0.016 C 
HETATM   15  C19 UNL     1      -4.741  48.311 -19.537  1.00  0.00     0.017 C 
HETATM   16  C20 UNL     1      -6.027  47.834 -18.869  1.00  0.00     0.080 C 
HETATM   17  C21 UNL     1      -6.686  46.740 -19.667  1.00  0.00     0.137 C 
HETATM   18  O3  UNL     1      -6.853  45.621 -19.182  1.00  0.00    -0.297 OA
HETATM   19  C22 UNL     1      -7.129  47.107 -21.090  1.00  0.00     0.042 C 
HETATM   20  C23 UNL     1      -7.199  45.825 -21.942  1.00  0.00     0.026 C 
HETATM   21  C25 UNL     1      -6.136  48.192 -21.662  1.00  0.00     0.012 C 
HETATM   22  C26 UNL     1      -6.164  48.295 -23.198  1.00  0.00     0.007 C 
HETATM   23  C27 UNL     1      -5.399  49.523 -23.698  1.00  0.00     0.011 C 
HETATM   24  C28 UNL     1      -3.909  49.568 -23.263  1.00  0.00    -0.032 C 
HETATM   25  C29 UNL     1      -3.177  48.440 -24.048  1.00  0.00     0.016 C 
HETATM   26  C30 UNL     1      -0.988  52.291 -23.493  1.00  0.00     0.017 C 
ENDROOT
BRANCH   4  27
HETATM   27  C8  UNL     1      -0.240  51.331 -25.859  1.00  0.00     0.149 C 
HETATM   28  O1  UNL     1       0.957  51.290 -26.111  1.00  0.00    -0.649 OA
BRANCH  27  29
HETATM   29  O2  UNL     1      -1.025  50.337 -26.299  1.00  0.00    -0.776 OA
HETATM   30  H11 UNL     1      -0.408  49.744 -26.777  1.00  0.00     0.167 HD
ENDBRANCH  27  29
ENDBRANCH   4  27
BRANCH   1  31
HETATM   31  C2  UNL     1       0.747  53.078 -21.647  1.00  0.00    -0.088 C 
HETATM   32  C1  UNL     1       0.389  52.486 -20.496  1.00  0.00     0.014 C 
HETATM   33  C3  UNL     1       1.480  54.396 -21.619  1.00  0.00     0.043 C 
ENDBRANCH   1  31
BRANCH  19  34
HETATM   34  C24 UNL     1      -8.542  47.741 -20.989  1.00  0.00     0.181 C 
BRANCH  34  35
HETATM   35  O4  UNL     1      -8.772  48.432 -19.770  1.00  0.00    -0.400 OA
HETATM   36  H37 UNL     1      -8.755  47.792 -19.037  1.00  0.00     0.209 HD
ENDBRANCH  34  35
ENDBRANCH  19  34
TORSDOF 5
ENDMDL
