MODEL 1
REMARK minimizedAffinity -9.79428959
REMARK  7 active torsions:
REMARK  status: ('A' for Active; 'I' for Inactive)
REMARK    1  A    between atoms: C2_2  and  C30_32 
REMARK    2  A    between atoms: C3_3  and  C4_4 
REMARK    3  A    between atoms: C4_4  and  O1_5 
REMARK    4  A    between atoms: C4_4  and  C5_6 
REMARK    5  A    between atoms: C5_6  and  C6_7 
REMARK    6  A    between atoms: C6_7  and  C8_9 
REMARK    7  A    between atoms: C30_32  and  O4_34 
ROOT
HETATM    1  C8  UNL     1      -0.813  50.562 -22.206  1.00  0.00    -0.002 C 
HETATM    2  C9  UNL     1      -0.948  50.456 -20.653  1.00  0.00     0.007 C 
HETATM    3  C10 UNL     1      -2.308  49.793 -20.348  1.00  0.00     0.015 C 
HETATM    4  C11 UNL     1      -2.764  49.227 -21.703  1.00  0.00    -0.013 C 
HETATM    5  C12 UNL     1      -1.999  47.867 -21.884  1.00  0.00     0.021 C 
HETATM    6  C13 UNL     1      -4.244  48.886 -21.896  1.00  0.00    -0.070 C 
HETATM    7  C14 UNL     1      -4.925  48.224 -20.940  1.00  0.00    -0.022 C 
HETATM    8  C15 UNL     1      -6.212  47.502 -21.191  1.00  0.00     0.034 C 
HETATM    9  C16 UNL     1      -6.356  47.142 -22.686  1.00  0.00     0.013 C 
HETATM   10  C17 UNL     1      -7.545  46.158 -22.983  1.00  0.00     0.018 C 
HETATM   11  C18 UNL     1      -7.193  44.760 -22.409  1.00  0.00     0.023 C 
HETATM   12  C19 UNL     1      -8.905  46.554 -22.385  1.00  0.00     0.023 C 
HETATM   13  C20 UNL     1      -7.718  46.014 -24.502  1.00  0.00     0.135 C 
HETATM   14  O2  UNL     1      -7.917  44.929 -25.048  1.00  0.00    -0.297 OA
HETATM   15  C21 UNL     1      -7.707  47.279 -25.324  1.00  0.00     0.080 C 
HETATM   16  C22 UNL     1      -6.430  48.056 -25.050  1.00  0.00     0.017 C 
HETATM   17  C23 UNL     1      -6.246  48.440 -23.561  1.00  0.00    -0.031 C 
HETATM   18  C24 UNL     1      -7.332  49.494 -23.196  1.00  0.00     0.016 C 
HETATM   19  C25 UNL     1      -4.840  49.152 -23.289  1.00  0.00     0.024 C 
HETATM   20  C26 UNL     1      -3.751  48.996 -24.373  1.00  0.00     0.010 C 
HETATM   21  C27 UNL     1      -2.484  49.865 -24.136  1.00  0.00     0.011 C 
HETATM   22  C28 UNL     1      -2.291  50.361 -22.682  1.00  0.00    -0.029 C 
HETATM   23  C29 UNL     1      -3.037  51.720 -22.479  1.00  0.00     0.016 C 
ENDROOT
BRANCH   1  24
HETATM   24  C6  UNL     1      -0.007  51.827 -22.641  1.00  0.00    -0.011 C 
HETATM   25  C7  UNL     1       0.311  52.744 -21.455  1.00  0.00     0.010 C 
BRANCH  24  26
HETATM   26  C5  UNL     1      -0.807  52.610 -23.725  1.00  0.00     0.040 C 
BRANCH  26  27
HETATM   27  C4  UNL     1       0.048  53.399 -24.733  1.00  0.00     0.142 C 
BRANCH  27  28
HETATM   28  C3  UNL     1       0.567  52.507 -25.833  1.00  0.00     0.018 C 
HETATM   29  C2  UNL     1       0.251  52.554 -27.144  1.00  0.00     0.010 C 
HETATM   30  C1  UNL     1       0.883  51.668 -28.172  1.00  0.00     0.055 C 
BRANCH  29  31
HETATM   31  C30 UNL     1      -0.740  53.507 -27.686  1.00  0.00     0.171 C 
HETATM   32  O3  UNL     1      -0.563  54.702 -27.833  1.00  0.00    -0.646 OA
BRANCH  31  33
HETATM   33  O4  UNL     1      -1.862  52.890 -28.094  1.00  0.00    -0.773 OA
HETATM   34  H46 UNL     1      -2.439  53.625 -28.384  1.00  0.00     0.167 HD
ENDBRANCH  31  33
ENDBRANCH  29  31
ENDBRANCH  27  28
BRANCH  27  35
HETATM   35  O1  UNL     1       1.144  53.986 -24.041  1.00  0.00    -0.392 OA
HETATM   36  H6  UNL     1       1.726  53.265 -23.748  1.00  0.00     0.210 HD
ENDBRANCH  27  35
ENDBRANCH  26  27
ENDBRANCH  24  26
ENDBRANCH   1  24
TORSDOF 7
ENDMDL
