MODEL 1
REMARK minimizedAffinity -8.72808266
REMARK  5 active torsions:
REMARK  status: ('A' for Active; 'I' for Inactive)
REMARK    1  A    between atoms: C2_2  and  C3_3 
REMARK    2  A    between atoms: C2_2  and  C25_27 
REMARK    3  A    between atoms: C3_3  and  C4_4 
REMARK    4  A    between atoms: C4_4  and  C5_5 
REMARK    5  A    between atoms: C15_15  and  O1_16 
ROOT
HETATM    1  C5  UNL     1      -5.619   6.110  15.737  1.00  0.00    -0.023 C 
HETATM    2  C6  UNL     1      -4.896   6.824  14.854  1.00  0.00    -0.075 C 
HETATM    3  C7  UNL     1      -5.468   7.572  13.683  1.00  0.00     0.035 C 
HETATM    4  C8  UNL     1      -4.248   7.951  12.854  1.00  0.00     0.013 C 
HETATM    5  C9  UNL     1      -3.139   8.167  13.894  1.00  0.00     0.033 C 
HETATM    6  C10 UNL     1      -1.707   8.273  13.317  1.00  0.00     0.070 C 
HETATM    7  C11 UNL     1      -1.611   9.301  12.154  1.00  0.00     0.039 C 
HETATM    8  C12 UNL     1      -0.617   8.891  11.069  1.00  0.00     0.009 C 
HETATM    9  C13 UNL     1       0.689   8.317  11.635  1.00  0.00    -0.001 C 
HETATM   10  C14 UNL     1       1.481   7.607  10.518  1.00  0.00     0.037 C 
HETATM   11  C15 UNL     1       1.158   6.120  10.439  1.00  0.00     0.118 C 
HETATM   12  C16 UNL     1       1.511   5.393  11.737  1.00  0.00     0.032 C 
HETATM   13  C17 UNL     1       1.516   6.311  12.962  1.00  0.00     0.015 C 
HETATM   14  C18 UNL     1       0.448   7.412  12.897  1.00  0.00    -0.009 C 
HETATM   15  C19 UNL     1       0.491   8.302  14.156  1.00  0.00     0.179 C 
HETATM   16  O2  UNL     1      -0.839   8.814  14.353  1.00  0.00    -0.379 OA
HETATM   17  C20 UNL     1      -1.025   6.937  12.965  1.00  0.00     0.032 C 
HETATM   18  C21 UNL     1      -1.262   5.843  14.023  1.00  0.00     0.009 C 
HETATM   19  C22 UNL     1      -2.734   5.682  14.366  1.00  0.00     0.014 C 
HETATM   20  C23 UNL     1      -3.371   6.988  14.884  1.00  0.00    -0.014 C 
HETATM   21  C24 UNL     1      -2.864   7.337  16.294  1.00  0.00     0.020 C 
ENDROOT
BRANCH   1  22
HETATM   22  C4  UNL     1      -7.119   5.955  15.744  1.00  0.00     0.031 C 
BRANCH  22  23
HETATM   23  C3  UNL     1      -7.541   4.682  14.990  1.00  0.00     0.037 C 
BRANCH  23  24
HETATM   24  C2  UNL     1      -7.822   4.814  13.498  1.00  0.00    -0.086 C 
HETATM   25  C1  UNL     1      -8.656   5.730  12.971  1.00  0.00     0.014 C 
BRANCH  24  26
HETATM   26  C25 UNL     1      -7.108   3.830  12.569  1.00  0.00     0.005 C 
HETATM   27  C26 UNL     1      -5.586   3.982  12.630  1.00  0.00     0.014 C 
HETATM   28  C27 UNL     1      -7.518   2.378  12.831  1.00  0.00     0.014 C 
ENDBRANCH  24  26
ENDBRANCH  23  24
ENDBRANCH  22  23
ENDBRANCH   1  22
BRANCH  11  29
HETATM   29  O1  UNL     1       1.856   5.531   9.347  1.00  0.00    -0.396 OA
HETATM   30  H21 UNL     1       2.810   5.595   9.526  1.00  0.00     0.210 HD
ENDBRANCH  11  29
TORSDOF 5
ENDMDL
