MODEL 1
REMARK minimizedAffinity -7.27680683
REMARK CNNscore 0.567024231
REMARK CNNaffinity 6.78419924
REMARK  16 active torsions:
REMARK  status: ('A' for Active; 'I' for Inactive)
REMARK    1  A    between atoms: C4_4  and  C5_5 
REMARK    2  A    between atoms: C5_5  and  C6_6 
REMARK    3  A    between atoms: C6_6  and  C7_7 
REMARK    4  A    between atoms: C9_9  and  C10_10 
REMARK    5  A    between atoms: C10_10  and  O1_11 
REMARK    6  A    between atoms: C10_10  and  C11_12 
REMARK    7  A    between atoms: C11_12  and  C12_13 
REMARK    8  A    between atoms: C14_15  and  C15_16 
REMARK    9  A    between atoms: C15_16  and  C16_17 
REMARK   10  A    between atoms: C16_17  and  C17_18 
REMARK   11  A    between atoms: C19_20  and  C20_21 
REMARK   12  A    between atoms: C20_21  and  C21_22 
REMARK   13  A    between atoms: C21_22  and  C22_23 
REMARK   14  A    between atoms: C22_23  and  O2_24 
REMARK   15  A    between atoms: C24_26  and  C26_28 
REMARK   16  A    between atoms: C29_32  and  O4_34 
ROOT
HETATM    1  C17 UNL     1      -2.346  50.820 -21.912  1.00  0.00    -0.006 C 
HETATM    2  C18 UNL     1      -1.973  49.595 -22.794  1.00  0.00     0.019 C 
HETATM    3  C19 UNL     1      -1.079  51.772 -21.657  1.00  0.00     0.026 C 
HETATM    4  C23 UNL     1      -0.344  51.517 -20.329  1.00  0.00    -0.066 C 
HETATM    5  C24 UNL     1       0.241  52.488 -19.583  1.00  0.00    -0.021 C 
HETATM    6  C25 UNL     1       0.945  52.237 -18.277  1.00  0.00     0.052 C 
HETATM    7  C27 UNL     1      -0.362  50.072 -19.907  1.00  0.00     0.038 C 
HETATM    8  C28 UNL     1      -1.783  49.536 -19.738  1.00  0.00     0.042 C 
HETATM    9  C29 UNL     1      -2.879  50.307 -20.516  1.00  0.00     0.062 C 
HETATM   10  C30 UNL     1      -3.463  51.423 -19.627  1.00  0.00     0.046 C 
ENDROOT
BRANCH   1  11
HETATM   11  C16 UNL     1      -3.411  51.669 -22.713  1.00  0.00     0.016 C 
BRANCH  11  12
HETATM   12  C15 UNL     1      -3.454  51.605 -24.251  1.00  0.00     0.028 C 
BRANCH  12  13
HETATM   13  C14 UNL     1      -4.038  50.347 -24.831  1.00  0.00    -0.024 C 
HETATM   14  C12 UNL     1      -3.588  49.628 -25.878  1.00  0.00    -0.085 C 
HETATM   15  C13 UNL     1      -2.381  49.983 -26.702  1.00  0.00     0.043 C 
BRANCH  14  16
HETATM   16  C11 UNL     1      -4.290  48.332 -26.265  1.00  0.00     0.069 C 
BRANCH  16  17
HETATM   17  C10 UNL     1      -4.866  48.351 -27.693  1.00  0.00     0.145 C 
BRANCH  17  18
HETATM   18  C9  UNL     1      -6.035  47.412 -27.850  1.00  0.00     0.007 C 
HETATM   19  C7  UNL     1      -6.984  47.368 -28.809  1.00  0.00    -0.085 C 
HETATM   20  C8  UNL     1      -7.059  48.300 -29.988  1.00  0.00     0.043 C 
BRANCH  19  21
HETATM   21  C6  UNL     1      -8.105  46.348 -28.724  1.00  0.00     0.037 C 
BRANCH  21  22
HETATM   22  C5  UNL     1      -7.644  44.904 -28.473  1.00  0.00     0.031 C 
BRANCH  22  23
HETATM   23  C4  UNL     1      -8.623  44.080 -27.680  1.00  0.00    -0.024 C 
HETATM   24  C2  UNL     1      -8.820  44.094 -26.346  1.00  0.00    -0.091 C 
HETATM   25  C1  UNL     1      -8.114  45.003 -25.380  1.00  0.00     0.042 C 
HETATM   26  C3  UNL     1      -9.824  43.170 -25.708  1.00  0.00     0.042 C 
ENDBRANCH  22  23
ENDBRANCH  21  22
ENDBRANCH  19  21
ENDBRANCH  17  18
BRANCH  17  27
HETATM   27  O1  UNL     1      -3.874  48.040 -28.665  1.00  0.00    -0.391 OA
HETATM   28  H17 UNL     1      -3.224  48.763 -28.633  1.00  0.00     0.210 HD
ENDBRANCH  17  27
ENDBRANCH  16  17
ENDBRANCH  14  16
ENDBRANCH  12  13
ENDBRANCH  11  12
ENDBRANCH   1  11
BRANCH   3  29
HETATM   29  C20 UNL     1      -0.005  51.813 -22.782  1.00  0.00     0.012 C 
BRANCH  29  30
HETATM   30  C21 UNL     1      -0.321  52.814 -23.902  1.00  0.00     0.027 C 
BRANCH  30  31
HETATM   31  C22 UNL     1       0.931  53.498 -24.440  1.00  0.00     0.164 C 
BRANCH  31  32
HETATM   32  O2  UNL     1       1.106  53.273 -25.832  1.00  0.00    -0.401 OA
HETATM   33  H38 UNL     1       0.628  52.452 -26.083  1.00  0.00     0.209 HD
ENDBRANCH  31  32
ENDBRANCH  30  31
ENDBRANCH  29  30
ENDBRANCH   3  29
BRANCH   9  34
HETATM   34  O4  UNL     1      -3.942  49.365 -20.721  1.00  0.00    -0.389 OA
HETATM   35  H50 UNL     1      -4.204  49.007 -19.852  1.00  0.00     0.210 HD
ENDBRANCH   9  34
BRANCH   5  36
HETATM   36  C26 UNL     1       0.260  53.934 -19.988  1.00  0.00     0.265 C 
HETATM   37  O3  UNL     1       1.127  54.464 -20.673  1.00  0.00    -0.302 OA
ENDBRANCH   5  36
TORSDOF 16
ENDMDL
