MODEL 1
REMARK minimizedAffinity -9.86854553
REMARK  7 active torsions:
REMARK  status: ('A' for Active; 'I' for Inactive)
REMARK    1  A    between atoms: C4_4  and  C5_5 
REMARK    2  A    between atoms: C5_5  and  C6_6 
REMARK    3  A    between atoms: C6_6  and  C7_7 
REMARK    4  A    between atoms: C7_7  and  C9_9 
REMARK    5  A    between atoms: C16_16  and  O1_17 
REMARK    6  A    between atoms: C18_19  and  O2_20 
REMARK    7  A    between atoms: C19_21  and  O3_22 
ROOT
HETATM    1  C9  UNL     1      -1.607  49.322 -18.789  1.00  0.00    -0.002 C 
HETATM    2  C10 UNL     1      -2.787  48.307 -18.800  1.00  0.00     0.006 C 
HETATM    3  C11 UNL     1      -3.374  48.308 -20.220  1.00  0.00     0.011 C 
HETATM    4  C12 UNL     1      -2.278  48.936 -21.099  1.00  0.00    -0.032 C 
HETATM    5  C13 UNL     1      -1.238  47.811 -21.400  1.00  0.00     0.016 C 
HETATM    6  C14 UNL     1      -2.799  49.553 -22.426  1.00  0.00     0.006 C 
HETATM    7  C15 UNL     1      -3.237  48.516 -23.471  1.00  0.00     0.038 C 
HETATM    8  C16 UNL     1      -3.803  49.205 -24.710  1.00  0.00     0.126 C 
HETATM    9  C17 UNL     1      -2.690  49.970 -25.444  1.00  0.00     0.055 C 
HETATM   10  C18 UNL     1      -3.242  50.840 -26.596  1.00  0.00     0.154 C 
HETATM   11  C19 UNL     1      -2.125  51.671 -27.282  1.00  0.00     0.147 C 
HETATM   12  C20 UNL     1      -0.720  51.302 -26.799  1.00  0.00     0.035 C 
HETATM   13  C21 UNL     1      -0.576  51.346 -25.273  1.00  0.00     0.013 C 
HETATM   14  C22 UNL     1      -1.819  50.837 -24.547  1.00  0.00    -0.023 A 
HETATM   15  C23 UNL     1      -2.468  51.824 -23.608  1.00  0.00     0.021 A 
HETATM   16  C24 UNL     1      -1.810  50.589 -23.018  1.00  0.00    -0.027 A 
HETATM   17  C25 UNL     1      -0.474  50.788 -22.294  1.00  0.00     0.011 C 
HETATM   18  C26 UNL     1      -0.452  50.625 -20.762  1.00  0.00     0.011 C 
HETATM   19  C27 UNL     1      -1.750  50.080 -20.153  1.00  0.00    -0.032 C 
HETATM   20  C28 UNL     1      -2.731  51.272 -19.997  1.00  0.00     0.016 C 
ENDROOT
BRANCH   1  21
HETATM   21  C7  UNL     1      -1.437  50.047 -17.417  1.00  0.00    -0.014 C 
HETATM   22  C8  UNL     1      -2.708  50.626 -16.777  1.00  0.00     0.010 C 
BRANCH  21  23
HETATM   23  C6  UNL     1      -0.339  51.134 -17.401  1.00  0.00     0.008 C 
BRANCH  23  24
HETATM   24  C5  UNL     1       0.693  50.964 -16.279  1.00  0.00     0.028 C 
BRANCH  24  25
HETATM   25  C4  UNL     1       1.880  51.860 -16.507  1.00  0.00    -0.025 C 
HETATM   26  C2  UNL     1       2.958  52.041 -15.719  1.00  0.00    -0.091 C 
HETATM   27  C1  UNL     1       4.056  52.984 -16.135  1.00  0.00     0.042 C 
HETATM   28  C3  UNL     1       3.199  51.367 -14.395  1.00  0.00     0.042 C 
ENDBRANCH  24  25
ENDBRANCH  23  24
ENDBRANCH  21  23
ENDBRANCH   1  21
BRANCH   8  29
HETATM   29  O1  UNL     1      -4.352  48.190 -25.555  1.00  0.00    -0.395 OA
HETATM   30  H28 UNL     1      -4.403  48.575 -26.457  1.00  0.00     0.210 HD
ENDBRANCH   8  29
BRANCH  10  31
HETATM   31  O2  UNL     1      -3.883  49.983 -27.555  1.00  0.00    -0.393 OA
HETATM   32  H31 UNL     1      -4.223  50.548 -28.273  1.00  0.00     0.210 HD
ENDBRANCH  10  31
BRANCH  11  33
HETATM   33  O3  UNL     1      -2.326  53.065 -27.033  1.00  0.00    -0.393 OA
HETATM   34  H33 UNL     1      -3.179  53.322 -27.425  1.00  0.00     0.210 HD
ENDBRANCH  11  33
TORSDOF 7
ENDMDL
