MODEL 1
REMARK minimizedAffinity -9.93796635
REMARK CNNscore 0.66559726
REMARK CNNaffinity 7.19707823
REMARK  7 active torsions:
REMARK  status: ('A' for Active; 'I' for Inactive)
REMARK    1  A    between atoms: C4_4  and  C5_5 
REMARK    2  A    between atoms: C5_5  and  O1_6 
REMARK    3  A    between atoms: C5_5  and  C6_7 
REMARK    4  A    between atoms: C6_7  and  C7_8 
REMARK    5  A    between atoms: C7_8  and  C8_10 
REMARK    6  A    between atoms: C8_10  and  C10_12 
REMARK    7  A    between atoms: C18_20  and  O3_21 
ROOT
HETATM    1  C10 UNL     1      -0.442   6.886  13.295  1.00  0.00     0.008 C 
HETATM    2  C11 UNL     1      -1.434   8.027  12.988  1.00  0.00     0.007 C 
HETATM    3  C12 UNL     1      -2.795   7.800  13.648  1.00  0.00     0.006 C 
HETATM    4  C13 UNL     1      -3.428   6.435  13.296  1.00  0.00     0.003 C 
HETATM    5  C14 UNL     1      -4.911   6.231  13.850  1.00  0.00    -0.035 C 
HETATM    6  C15 UNL     1      -4.955   6.262  15.395  1.00  0.00     0.016 C 
HETATM    7  C16 UNL     1      -5.810   7.398  13.335  1.00  0.00     0.012 C 
HETATM    8  C17 UNL     1      -7.308   7.173  13.529  1.00  0.00     0.033 C 
HETATM    9  C18 UNL     1      -7.781   5.861  12.914  1.00  0.00     0.126 C 
HETATM   10  C19 UNL     1      -6.995   4.611  13.409  1.00  0.00    -0.017 C 
HETATM   11  C20 UNL     1      -7.425   3.418  12.509  1.00  0.00     0.018 C 
HETATM   12  C21 UNL     1      -7.389   4.217  14.847  1.00  0.00     0.018 C 
HETATM   13  C22 UNL     1      -5.455   4.891  13.224  1.00  0.00     0.004 C 
HETATM   14  C23 UNL     1      -4.540   3.701  13.565  1.00  0.00     0.007 C 
HETATM   15  C24 UNL     1      -3.112   3.919  13.050  1.00  0.00     0.011 C 
HETATM   16  C25 UNL     1      -2.423   5.227  13.534  1.00  0.00    -0.029 C 
HETATM   17  C26 UNL     1      -2.106   5.048  15.053  1.00  0.00     0.016 C 
HETATM   18  C27 UNL     1      -1.022   5.523  12.726  1.00  0.00     0.002 C 
HETATM   19  C28 UNL     1      -1.254   5.553  11.197  1.00  0.00     0.190 C 
HETATM   20  O4  UNL     1      -1.059   4.228  10.701  1.00  0.00    -0.321 OA
HETATM   21  C29 UNL     1      -0.340   3.508  11.599  1.00  0.00     0.259 C 
HETATM   22  O5  UNL     1       0.030   2.361  11.419  1.00  0.00    -0.265 OA
HETATM   23  C30 UNL     1      -0.032   4.346  12.801  1.00  0.00     0.124 C 
ENDROOT
BRANCH   1  24
HETATM   24  C8  UNL     1       1.031   7.356  13.002  1.00  0.00     0.056 C 
HETATM   25  C9  UNL     1       1.430   8.711  13.567  1.00  0.00     0.018 C 
BRANCH  24  26
HETATM   26  C7  UNL     1       1.410   7.201  11.512  1.00  0.00     0.133 C 
HETATM   27  O2  UNL     1       0.985   7.983  10.657  1.00  0.00    -0.297 OA
BRANCH  26  28
HETATM   28  C6  UNL     1       2.285   6.036  11.078  1.00  0.00     0.114 C 
BRANCH  28  29
HETATM   29  C5  UNL     1       3.229   6.352   9.920  1.00  0.00     0.148 C 
BRANCH  29  30
HETATM   30  C4  UNL     1       2.587   6.303   8.562  1.00  0.00     0.007 C 
HETATM   31  C2  UNL     1       2.468   7.292   7.654  1.00  0.00    -0.089 C 
HETATM   32  C1  UNL     1       2.975   8.699   7.814  1.00  0.00     0.042 C 
HETATM   33  C3  UNL     1       1.768   7.042   6.342  1.00  0.00     0.042 C 
ENDBRANCH  29  30
BRANCH  29  34
HETATM   34  O1  UNL     1       4.320   5.436   9.918  1.00  0.00    -0.391 OA
HETATM   35  H9  UNL     1       4.878   5.675   9.154  1.00  0.00     0.210 HD
ENDBRANCH  29  34
ENDBRANCH  28  29
ENDBRANCH  26  28
ENDBRANCH  24  26
ENDBRANCH   1  24
BRANCH   9  36
HETATM   36  O3  UNL     1      -9.184   5.728  13.139  1.00  0.00    -0.395 OA
HETATM   37  H30 UNL     1      -9.348   5.796  14.094  1.00  0.00     0.210 HD
ENDBRANCH   9  36
TORSDOF 7
ENDMDL
