MODEL 1
REMARK minimizedAffinity -9.02765179
REMARK  4 active torsions:
REMARK  status: ('A' for Active; 'I' for Inactive)
REMARK    1  A    between atoms: C4_4  and  C5_5 
REMARK    2  A    between atoms: C7_7  and  N1_8 
REMARK    3  A    between atoms: C9_10  and  C10_11 
REMARK    4  A    between atoms: C10_11  and  N2_12 
ROOT
HETATM    1  N1  UNL     1      -0.356  52.172 -24.502  1.00  0.00    -0.300 N 
HETATM    2  C8  UNL     1      -1.666  52.081 -24.933  1.00  0.00     0.109 A 
HETATM    3  C9  UNL     1      -1.703  51.846 -26.294  1.00  0.00    -0.011 A 
HETATM    4  C14 UNL     1      -0.346  51.775 -26.727  1.00  0.00     0.000 A 
HETATM    5  C15 UNL     1       0.260  51.556 -27.985  1.00  0.00     0.014 A 
HETATM    6  C16 UNL     1       1.653  51.536 -28.096  1.00  0.00     0.001 A 
HETATM    7  C17 UNL     1       2.450  51.733 -26.977  1.00  0.00     0.002 A 
HETATM    8  C18 UNL     1       1.878  51.955 -25.721  1.00  0.00     0.031 A 
HETATM    9  C19 UNL     1       0.474  51.973 -25.607  1.00  0.00     0.051 A 
ENDROOT
BRANCH   1  10
HETATM   10  C7  UNL     1       0.051  52.415 -23.183  1.00  0.00     0.179 A 
HETATM   11  C6  UNL     1      -0.253  51.667 -22.064  1.00  0.00     0.091 A 
HETATM   12  C5  UNL     1       0.396  52.318 -20.977  1.00  0.00     0.069 A 
HETATM   13  N4  UNL     1       1.056  53.396 -21.428  1.00  0.00    -0.258 N 
HETATM   14  O1  UNL     1       0.834  53.456 -22.783  1.00  0.00    -0.219 OA
ATOM     15  H4  UNL     1       1.614  54.045 -20.872  1.00  0.00     0.195 HD
BRANCH  12  16
HETATM   16  C4  UNL     1       0.406  51.941 -19.560  1.00  0.00    -0.007 A 
HETATM   17  C3  UNL     1       1.087  52.731 -18.618  1.00  0.00     0.014 A 
HETATM   18  C2  UNL     1       1.108  52.378 -17.266  1.00  0.00     0.001 A 
HETATM   19  C1  UNL     1       0.447  51.231 -16.836  1.00  0.00     0.000 A 
HETATM   20  C21 UNL     1      -0.237  50.439 -17.755  1.00  0.00     0.001 A 
HETATM   21  C20 UNL     1      -0.258  50.790 -19.108  1.00  0.00     0.014 A 
ENDBRANCH  12  16
ENDBRANCH   1  10
BRANCH   3  22
HETATM   22  C10 UNL     1      -2.925  51.689 -27.138  1.00  0.00     0.170 C 
BRANCH  22  23
HETATM   23  N2  UNL     1      -3.446  50.334 -27.064  1.00  0.00    -0.347 N 
HETATM   24  C11 UNL     1      -3.724  49.631 -25.923  1.00  0.00     0.109 A 
HETATM   25  C12 UNL     1      -4.140  48.395 -26.361  1.00  0.00     0.106 A 
HETATM   26  N3  UNL     1      -4.113  48.330 -27.730  1.00  0.00    -0.361 N 
HETATM   27  C13 UNL     1      -3.693  49.511 -28.127  1.00  0.00     0.182 A 
ATOM     28  H3  UNL     1      -4.366  47.534 -28.316  1.00  0.00     0.166 HD
ENDBRANCH  22  23
ENDBRANCH   3  22
TORSDOF 4
ENDMDL
