MODEL 1
REMARK minimizedAffinity -9.82742786
REMARK  9 active torsions:
REMARK  status: ('A' for Active; 'I' for Inactive)
REMARK    1  A    between atoms: C2_2  and  C30_33 
REMARK    2  A    between atoms: C3_3  and  C4_4 
REMARK    3  A    between atoms: C4_4  and  C5_5 
REMARK    4  A    between atoms: C5_5  and  C6_6 
REMARK    5  A    between atoms: C6_6  and  C8_8 
REMARK    6  A    between atoms: C10_10  and  O1_11 
REMARK    7  A    between atoms: C23_24  and  O2_25 
REMARK    8  A    between atoms: C29_31  and  O3_32 
REMARK    9  A    between atoms: C30_33  and  O4_34 
ROOT
HETATM    1  C8  UNL     1      -3.661  50.474 -25.165  1.00  0.00     0.001 C 
HETATM    2  C9  UNL     1      -5.186  50.407 -24.887  1.00  0.00     0.038 C 
HETATM    3  C10 UNL     1      -5.345  50.242 -23.357  1.00  0.00     0.132 C 
HETATM    4  C11 UNL     1      -3.972  50.656 -22.769  1.00  0.00     0.016 C 
HETATM    5  C12 UNL     1      -3.897  52.219 -22.717  1.00  0.00     0.023 C 
HETATM    6  C13 UNL     1      -3.588  50.179 -21.370  1.00  0.00    -0.037 C 
HETATM    7  C14 UNL     1      -2.271  50.042 -21.057  1.00  0.00    -0.065 C 
HETATM    8  C15 UNL     1      -1.166  50.270 -22.101  1.00  0.00     0.036 C 
HETATM    9  C16 UNL     1      -1.594  50.491 -23.569  1.00  0.00     0.015 C 
HETATM   10  C17 UNL     1      -3.019  49.990 -23.827  1.00  0.00    -0.026 C 
HETATM   11  C18 UNL     1      -2.987  48.435 -23.762  1.00  0.00     0.016 C 
HETATM   12  C19 UNL     1      -1.812  49.585 -19.642  1.00  0.00    -0.016 C 
HETATM   13  C20 UNL     1      -1.529  48.074 -19.778  1.00  0.00     0.020 C 
HETATM   14  C21 UNL     1      -0.554  50.368 -19.204  1.00  0.00     0.016 C 
HETATM   15  C22 UNL     1      -0.071  50.164 -17.770  1.00  0.00     0.033 C 
HETATM   16  C23 UNL     1      -1.032  49.469 -16.808  1.00  0.00     0.126 C 
HETATM   17  C24 UNL     1      -2.553  49.673 -17.076  1.00  0.00    -0.017 C 
HETATM   18  C25 UNL     1      -2.979  50.956 -16.303  1.00  0.00     0.018 C 
HETATM   19  C26 UNL     1      -3.343  48.503 -16.439  1.00  0.00     0.018 C 
HETATM   20  C27 UNL     1      -2.921  49.920 -18.596  1.00  0.00     0.011 C 
HETATM   21  C28 UNL     1      -4.268  49.319 -19.043  1.00  0.00     0.043 C 
HETATM   22  C29 UNL     1      -4.711  49.884 -20.399  1.00  0.00     0.148 C 
ENDROOT
BRANCH   1  23
HETATM   23  C6  UNL     1      -3.148  49.859 -26.500  1.00  0.00    -0.013 C 
HETATM   24  C7  UNL     1      -2.560  48.464 -26.214  1.00  0.00     0.010 C 
BRANCH  23  25
HETATM   25  C5  UNL     1      -2.100  50.697 -27.266  1.00  0.00     0.008 C 
BRANCH  25  26
HETATM   26  C4  UNL     1      -1.526  51.843 -26.423  1.00  0.00     0.028 C 
BRANCH  26  27
HETATM   27  C3  UNL     1      -0.087  51.596 -26.068  1.00  0.00    -0.022 C 
HETATM   28  C2  UNL     1       0.991  51.694 -26.875  1.00  0.00    -0.064 C 
HETATM   29  C1  UNL     1       0.909  52.015 -28.345  1.00  0.00     0.045 C 
BRANCH  28  30
HETATM   30  C30 UNL     1       2.409  51.449 -26.396  1.00  0.00     0.197 C 
BRANCH  30  31
HETATM   31  O4  UNL     1       3.354  51.496 -27.456  1.00  0.00    -0.397 OA
HETATM   32  H50 UNL     1       3.079  50.819 -28.094  1.00  0.00     0.209 HD
ENDBRANCH  30  31
ENDBRANCH  28  30
ENDBRANCH  26  27
ENDBRANCH  25  26
ENDBRANCH  23  25
ENDBRANCH   1  23
BRANCH   3  33
HETATM   33  O1  UNL     1      -6.418  51.030 -22.856  1.00  0.00    -0.394 OA
HETATM   34  H17 UNL     1      -7.213  50.805 -23.384  1.00  0.00     0.210 HD
ENDBRANCH   3  33
BRANCH  22  35
HETATM   35  O3  UNL     1      -5.422  51.087 -20.144  1.00  0.00    -0.391 OA
HETATM   36  H47 UNL     1      -5.949  51.282 -20.943  1.00  0.00     0.210 HD
ENDBRANCH  22  35
BRANCH  16  37
HETATM   37  O2  UNL     1      -0.705  48.075 -16.780  1.00  0.00    -0.395 OA
HETATM   38  H36 UNL     1       0.212  47.988 -16.465  1.00  0.00     0.210 HD
ENDBRANCH  16  37
TORSDOF 9
ENDMDL
