MODEL 1
REMARK minimizedAffinity -8.98793793
REMARK CNNscore 0.534423888
REMARK CNNaffinity 6.91730499
REMARK  11 active torsions:
REMARK  status: ('A' for Active; 'I' for Inactive)
REMARK    1  A    between atoms: C12_13  and  O2_14 
REMARK    2  A    between atoms: C19_21  and  O3_22 
REMARK    3  A    between atoms: C19_21  and  C20_23 
REMARK    4  A    between atoms: C20_23  and  C21_25 
REMARK    5  A    between atoms: C21_25  and  O5_26 
REMARK    6  A    between atoms: O5_26  and  C22_27 
REMARK    7  A    between atoms: C22_27  and  C23_29 
REMARK    8  A    between atoms: C23_29  and  C24_30 
REMARK    9  A    between atoms: C24_30  and  C25_31 
REMARK       I    between atoms: C25_31  and  N1_33 
REMARK   10  A    between atoms: N1_33  and  C26_34 
REMARK   11  A    between atoms: C26_34  and  C27_35 
ROOT
HETATM    1  C1  UNL     1       3.397   8.069  11.059  1.00  0.00     0.025 C 
HETATM    2  C2  UNL     1       2.437   6.920  10.643  1.00  0.00     0.004 A 
HETATM    3  C3  UNL     1       3.351   5.709  10.493  1.00  0.00    -0.009 A 
HETATM    4  C4  UNL     1       3.524   5.017   9.359  1.00  0.00     0.052 A 
HETATM    5  C5  UNL     1       2.813   5.401   8.123  1.00  0.00     0.172 A 
HETATM    6  O1  UNL     1       2.950   4.765   7.087  1.00  0.00    -0.289 OA
HETATM    7  C6  UNL     1       1.950   6.599   8.183  1.00  0.00     0.058 A 
HETATM    8  C7  UNL     1       1.787   7.308   9.316  1.00  0.00    -0.064 A 
HETATM    9  C8  UNL     1       0.870   8.517   9.332  1.00  0.00     0.036 C 
HETATM   10  C9  UNL     1       0.147   8.709  10.672  1.00  0.00     0.010 C 
HETATM   11  C10 UNL     1      -0.043   7.360  11.380  1.00  0.00    -0.002 C 
HETATM   12  C11 UNL     1       1.328   6.729  11.764  1.00  0.00     0.035 C 
HETATM   13  C12 UNL     1       1.048   5.276  12.215  1.00  0.00     0.124 C 
HETATM   14  C13 UNL     1       0.200   5.270  13.488  1.00  0.00     0.045 C 
HETATM   15  C14 UNL     1      -1.058   6.183  13.504  1.00  0.00     0.001 C 
HETATM   16  C15 UNL     1      -1.168   6.682  14.985  1.00  0.00     0.019 C 
HETATM   17  C16 UNL     1      -0.977   7.456  12.601  1.00  0.00     0.002 C 
HETATM   18  C17 UNL     1      -2.436   7.761  12.181  1.00  0.00     0.009 C 
HETATM   19  C18 UNL     1      -3.323   6.706  12.829  1.00  0.00     0.047 C 
HETATM   20  C19 UNL     1      -2.413   5.502  13.082  1.00  0.00     0.128 C 
ENDROOT
BRANCH  20  21
HETATM   21  O3  UNL     1      -2.967   4.810  14.224  1.00  0.00    -0.381 OA
HETATM   22  H25 UNL     1      -2.866   3.844  14.065  1.00  0.00     0.211 HD
ENDBRANCH  20  21
BRANCH  20  23
HETATM   23  C20 UNL     1      -2.375   4.414  11.976  1.00  0.00     0.185 C 
HETATM   24  O4  UNL     1      -1.864   4.718  10.883  1.00  0.00    -0.292 OA
BRANCH  23  25
HETATM   25  C21 UNL     1      -2.986   3.021  12.152  1.00  0.00     0.260 C 
BRANCH  25  26
HETATM   26  O5  UNL     1      -3.805   2.477  11.129  1.00  0.00    -0.314 OA
BRANCH  26  27
HETATM   27  C22 UNL     1      -5.107   2.275  11.464  1.00  0.00     0.259 C 
HETATM   28  O6  UNL     1      -5.789   1.326  11.107  1.00  0.00    -0.265 OA
BRANCH  27  29
HETATM   29  C23 UNL     1      -5.566   3.386  12.368  1.00  0.00     0.120 C 
BRANCH  29  30
HETATM   30  C24 UNL     1      -7.072   3.359  12.570  1.00  0.00     0.112 C 
BRANCH  30  31
HETATM   31  C25 UNL     1      -7.457   3.971  13.903  1.00  0.00     0.218 C 
HETATM   32  O7  UNL     1      -7.561   3.325  14.941  1.00  0.00    -0.274 OA
HETATM   33  N1  UNL     1      -7.669   5.326  13.829  1.00  0.00    -0.357 N 
HETATM   34  H32 UNL     1      -7.477   5.812  12.960  1.00  0.00     0.162 HD
BRANCH  33  35
HETATM   35  C26 UNL     1      -8.002   6.117  14.989  1.00  0.00     0.161 C 
BRANCH  35  36
HETATM   36  C27 UNL     1      -9.020   7.166  14.636  1.00  0.00    -0.038 A 
HETATM   37  C28 UNL     1     -10.086   6.854  13.790  1.00  0.00     0.025 A 
HETATM   38  C29 UNL     1     -11.021   7.838  13.513  1.00  0.00     0.088 A 
HETATM   39  N2  UNL     1     -10.966   9.092  14.016  1.00  0.00    -0.375 N 
HETATM   40  C30 UNL     1      -9.930   9.371  14.833  1.00  0.00     0.088 A 
ATOM     41  H2  UNL     1     -11.673   9.791  13.789  1.00  0.00     0.164 HD
HETATM   42  C31 UNL     1      -8.948   8.455  15.172  1.00  0.00     0.025 A 
ENDBRANCH  35  36
ENDBRANCH  33  35
ENDBRANCH  30  31
ENDBRANCH  29  30
ENDBRANCH  27  29
ENDBRANCH  26  27
ENDBRANCH  25  26
ENDBRANCH  23  25
ENDBRANCH  20  23
BRANCH  13  43
HETATM   43  O2  UNL     1       0.374   4.545  11.205  1.00  0.00    -0.395 OA
HETATM   44  H14 UNL     1       0.478   3.593  11.426  1.00  0.00     0.210 HD
ENDBRANCH  13  43
TORSDOF 11
ENDMDL
