MODEL 1
REMARK minimizedAffinity -9.30596066
REMARK CNNscore 0.613208592
REMARK CNNaffinity 7.59013176
REMARK  18 active torsions:
REMARK  status: ('A' for Active; 'I' for Inactive)
REMARK    1  A    between atoms: C2_2  and  C4_4 
REMARK    2  A    between atoms: C4_4  and  N1_5 
REMARK    3  A    between atoms: C4_4  and  C30_38 
REMARK       I    between atoms: N1_5  and  C5_6 
REMARK    4  A    between atoms: C5_6  and  C6_8 
REMARK    5  A    between atoms: C6_8  and  C7_9 
REMARK    6  A    between atoms: C7_9  and  C8_10 
REMARK    7  A    between atoms: C8_10  and  O3_12 
REMARK    8  A    between atoms: O3_12  and  C9_13 
REMARK    9  A    between atoms: C9_13  and  C10_14 
REMARK   10  A    between atoms: C10_14  and  C11_16 
REMARK   11  A    between atoms: C11_16  and  O5_17 
REMARK   12  A    between atoms: C26_33  and  O7_34 
REMARK       I    between atoms: C30_38  and  N2_40 
REMARK   13  A    between atoms: N2_40  and  C31_41 
REMARK   14  A    between atoms: C31_41  and  C32_42 
REMARK   15  A    between atoms: C32_42  and  C33_43 
REMARK   16  A    between atoms: C32_42  and  C35_47 
REMARK   17  A    between atoms: C33_43  and  C34_44 
REMARK   18  A    between atoms: C34_44  and  O10_46 
ROOT
HETATM    1  C8  UNL     1      -3.760   3.967  12.604  1.00  0.00     0.259 C 
HETATM    2  O2  UNL     1      -3.487   2.802  12.342  1.00  0.00    -0.265 OA
ENDROOT
BRANCH   1   3
HETATM    3  C7  UNL     1      -5.153   4.543  12.540  1.00  0.00     0.120 C 
BRANCH   3   4
HETATM    4  C6  UNL     1      -6.245   3.489  12.411  1.00  0.00     0.112 C 
BRANCH   4   5
HETATM    5  C5  UNL     1      -7.503   3.911  13.143  1.00  0.00     0.218 C 
HETATM    6  N1  UNL     1      -7.499   5.225  13.552  1.00  0.00    -0.347 N 
HETATM    7  H9  UNL     1      -6.695   5.812  13.366  1.00  0.00     0.163 HD
HETATM    8  O1  UNL     1      -8.445   3.152  13.327  1.00  0.00    -0.274 OA
BRANCH   6   9
HETATM    9  C4  UNL     1      -8.599   5.770  14.365  1.00  0.00     0.179 C 
BRANCH   9  10
HETATM   10  C2  UNL     1      -8.042   6.811  15.368  1.00  0.00     0.009 C 
HETATM   11  C1  UNL     1      -9.151   7.478  16.190  1.00  0.00     0.012 C 
HETATM   12  C3  UNL     1      -7.044   6.163  16.336  1.00  0.00     0.012 C 
ENDBRANCH   9  10
BRANCH   9  13
HETATM   13  C30 UNL     1      -9.675   6.408  13.450  1.00  0.00     0.240 C 
HETATM   14  O8  UNL     1      -9.529   6.517  12.234  1.00  0.00    -0.271 OA
HETATM   15  N2  UNL     1     -10.881   6.664  14.072  1.00  0.00    -0.359 N 
HETATM   16  H43 UNL     1     -10.960   6.457  15.060  1.00  0.00     0.162 HD
BRANCH  15  17
HETATM   17  C31 UNL     1     -12.090   6.949  13.318  1.00  0.00     0.132 C 
BRANCH  17  18
HETATM   18  C32 UNL     1     -13.046   7.866  14.115  1.00  0.00     0.046 C 
BRANCH  18  19
HETATM   19  C33 UNL     1     -12.314   8.873  15.012  1.00  0.00     0.120 C 
BRANCH  19  20
HETATM   20  C34 UNL     1     -12.337  10.296  14.524  1.00  0.00     0.140 C 
HETATM   21  O9  UNL     1     -13.120  11.173  14.845  1.00  0.00    -0.650 OA
BRANCH  20  22
HETATM   22  O10 UNL     1     -11.319  10.560  13.683  1.00  0.00    -0.776 OA
HETATM   23  H49 UNL     1     -11.430  11.506  13.452  1.00  0.00     0.167 HD
ENDBRANCH  20  22
ENDBRANCH  19  20
ENDBRANCH  18  19
BRANCH  18  24
HETATM   24  C35 UNL     1     -14.147   7.119  14.860  1.00  0.00    -0.052 A 
HETATM   25  C36 UNL     1     -14.734   7.621  16.030  1.00  0.00     0.007 A 
HETATM   26  C37 UNL     1     -15.738   6.905  16.688  1.00  0.00     0.001 A 
HETATM   27  C38 UNL     1     -16.169   5.679  16.187  1.00  0.00     0.000 A 
HETATM   28  C39 UNL     1     -15.601   5.171  15.022  1.00  0.00     0.001 A 
HETATM   29  C40 UNL     1     -14.604   5.888  14.360  1.00  0.00     0.007 A 
ENDBRANCH  18  24
ENDBRANCH  17  18
ENDBRANCH  15  17
ENDBRANCH   9  13
ENDBRANCH   6   9
ENDBRANCH   4   5
ENDBRANCH   3   4
ENDBRANCH   1   3
BRANCH   1  30
HETATM   30  O3  UNL     1      -2.864   4.892  13.049  1.00  0.00    -0.314 OA
BRANCH  30  31
HETATM   31  C9  UNL     1      -2.795   4.962  14.476  1.00  0.00     0.260 C 
BRANCH  31  32
HETATM   32  C10 UNL     1      -2.500   6.371  14.992  1.00  0.00     0.185 C 
HETATM   33  O4  UNL     1      -3.298   6.954  15.746  1.00  0.00    -0.292 OA
BRANCH  32  34
HETATM   34  C11 UNL     1      -1.232   7.127  14.533  1.00  0.00     0.128 C 
HETATM   35  C12 UNL     1      -0.194   7.513  15.614  1.00  0.00     0.047 C 
HETATM   36  C13 UNL     1       1.192   7.432  14.941  1.00  0.00     0.009 C 
HETATM   37  C14 UNL     1       0.884   7.285  13.457  1.00  0.00     0.002 C 
HETATM   38  C15 UNL     1       1.989   6.789  12.513  1.00  0.00    -0.002 C 
HETATM   39  C28 UNL     1      -0.387   6.401  13.438  1.00  0.00     0.001 C 
HETATM   40  C16 UNL     1       3.268   7.641  12.669  1.00  0.00     0.010 C 
HETATM   41  C25 UNL     1       1.432   6.823  11.042  1.00  0.00     0.031 C 
HETATM   42  C17 UNL     1       4.331   7.322  11.619  1.00  0.00     0.035 C 
HETATM   43  C18 UNL     1       3.702   7.423  10.253  1.00  0.00    -0.068 C 
HETATM   44  C19 UNL     1       4.063   8.412   9.415  1.00  0.00     0.053 C 
HETATM   45  C23 UNL     1       2.547   6.444   9.995  1.00  0.00    -0.014 C 
HETATM   46  C20 UNL     1       3.256   8.731   8.212  1.00  0.00     0.149 C 
HETATM   47  O6  UNL     1       3.609   9.640   7.469  1.00  0.00    -0.293 OA
HETATM   48  C21 UNL     1       1.948   8.005   8.031  1.00  0.00     0.084 C 
HETATM   49  C22 UNL     1       2.076   6.571   8.520  1.00  0.00     0.022 C 
HETATM   50  C24 UNL     1       3.055   4.988  10.146  1.00  0.00     0.020 C 
HETATM   51  C26 UNL     1       0.078   6.064  10.912  1.00  0.00     0.124 C 
HETATM   52  C27 UNL     1      -0.954   6.451  11.999  1.00  0.00     0.045 C 
HETATM   53  C29 UNL     1      -0.111   4.937  13.863  1.00  0.00     0.019 C 
BRANCH  34  54
HETATM   54  O5  UNL     1      -1.714   8.378  13.985  1.00  0.00    -0.381 OA
HETATM   55  H16 UNL     1      -2.603   8.195  13.618  1.00  0.00     0.211 HD
ENDBRANCH  34  54
BRANCH  51  56
HETATM   56  O7  UNL     1       0.268   4.657  10.931  1.00  0.00    -0.395 OA
HETATM   57  H37 UNL     1      -0.584   4.244  10.710  1.00  0.00     0.210 HD
ENDBRANCH  51  56
ENDBRANCH  32  34
ENDBRANCH  31  32
ENDBRANCH  30  31
ENDBRANCH   1  30
TORSDOF 18
ENDMDL
