MODEL 1
REMARK minimizedAffinity -7.17358446
REMARK CNNscore 0.466816068
REMARK CNNaffinity 5.93901873
REMARK  6 active torsions:
REMARK  status: ('A' for Active; 'I' for Inactive)
REMARK    1  A    between atoms: C2_2  and  C30_31 
REMARK    2  A    between atoms: C3_3  and  C4_4 
REMARK    3  A    between atoms: C4_4  and  C5_5 
REMARK    4  A    between atoms: C5_5  and  C6_6 
REMARK    5  A    between atoms: C6_6  and  C8_8 
REMARK    6  A    between atoms: C30_31  and  O3_33 
ROOT
HETATM    1  C8  UNL     1     -14.650  46.262 -25.780  1.00  0.00    -0.002 C 
HETATM    2  C9  UNL     1     -14.657  44.726 -25.591  1.00  0.00     0.007 C 
HETATM    3  C10 UNL     1     -13.632  44.154 -26.606  1.00  0.00     0.015 C 
HETATM    4  C11 UNL     1     -13.288  45.342 -27.536  1.00  0.00    -0.013 C 
HETATM    5  C12 UNL     1     -14.418  45.383 -28.615  1.00  0.00     0.021 C 
HETATM    6  C13 UNL     1     -11.958  45.409 -28.284  1.00  0.00    -0.070 C 
HETATM    7  C14 UNL     1     -11.021  44.444 -28.234  1.00  0.00    -0.022 C 
HETATM    8  C15 UNL     1      -9.644  44.574 -28.816  1.00  0.00     0.034 C 
HETATM    9  C16 UNL     1      -9.274  46.040 -29.148  1.00  0.00     0.013 C 
HETATM   10  C17 UNL     1      -7.825  46.261 -29.727  1.00  0.00     0.018 C 
HETATM   11  C18 UNL     1      -7.008  47.143 -28.753  1.00  0.00     0.023 C 
HETATM   12  C19 UNL     1      -7.034  44.947 -29.911  1.00  0.00     0.023 C 
HETATM   13  C20 UNL     1      -7.832  47.008 -31.073  1.00  0.00     0.135 C 
HETATM   14  O1  UNL     1      -7.036  46.741 -31.976  1.00  0.00    -0.297 OA
HETATM   15  C21 UNL     1      -8.780  48.174 -31.256  1.00  0.00     0.080 C 
HETATM   16  C22 UNL     1      -9.982  48.142 -30.326  1.00  0.00     0.017 C 
HETATM   17  C23 UNL     1     -10.435  46.716 -29.950  1.00  0.00    -0.031 C 
HETATM   18  C24 UNL     1     -10.780  45.929 -31.253  1.00  0.00     0.016 C 
HETATM   19  C25 UNL     1     -11.747  46.726 -29.060  1.00  0.00     0.024 C 
HETATM   20  C26 UNL     1     -11.899  47.942 -28.104  1.00  0.00     0.010 C 
HETATM   21  C27 UNL     1     -13.161  47.881 -27.209  1.00  0.00     0.011 C 
HETATM   22  C28 UNL     1     -13.290  46.526 -26.486  1.00  0.00    -0.029 C 
HETATM   23  C29 UNL     1     -12.100  46.433 -25.477  1.00  0.00     0.016 C 
ENDROOT
BRANCH   1  24
HETATM   24  C6  UNL     1     -15.051  47.123 -24.550  1.00  0.00    -0.014 C 
HETATM   25  C7  UNL     1     -16.588  47.088 -24.406  1.00  0.00     0.010 C 
BRANCH  24  26
HETATM   26  C5  UNL     1     -14.417  46.726 -23.198  1.00  0.00     0.008 C 
BRANCH  26  27
HETATM   27  C4  UNL     1     -15.449  46.552 -22.072  1.00  0.00     0.028 C 
BRANCH  27  28
HETATM   28  C3  UNL     1     -15.111  47.318 -20.821  1.00  0.00    -0.013 C 
HETATM   29  C2  UNL     1     -15.777  47.320 -19.649  1.00  0.00     0.008 C 
HETATM   30  C1  UNL     1     -15.305  48.115 -18.465  1.00  0.00     0.055 C 
BRANCH  29  31
HETATM   31  C30 UNL     1     -17.048  46.580 -19.485  1.00  0.00     0.171 C 
HETATM   32  O2  UNL     1     -17.182  45.413 -19.167  1.00  0.00    -0.646 OA
BRANCH  31  33
HETATM   33  O3  UNL     1     -18.112  47.358 -19.740  1.00  0.00    -0.773 OA
HETATM   34  H46 UNL     1     -18.871  46.758 -19.588  1.00  0.00     0.167 HD
ENDBRANCH  31  33
ENDBRANCH  29  31
ENDBRANCH  27  28
ENDBRANCH  26  27
ENDBRANCH  24  26
ENDBRANCH   1  24
TORSDOF 6
ENDMDL
