MODEL 1
REMARK minimizedAffinity -9.67964172
REMARK  6 active torsions:
REMARK  status: ('A' for Active; 'I' for Inactive)
REMARK    1  A    between atoms: C2_2  and  C30_31 
REMARK    2  A    between atoms: C3_3  and  C4_4 
REMARK    3  A    between atoms: C4_4  and  C5_5 
REMARK    4  A    between atoms: C5_5  and  C6_6 
REMARK    5  A    between atoms: C6_6  and  C8_8 
REMARK    6  A    between atoms: C30_31  and  O2_32 
ROOT
HETATM    1  C8  UNL     1      -2.991  48.309 -19.420  1.00  0.00    -0.002 C 
HETATM    2  C9  UNL     1      -3.713  47.231 -20.271  1.00  0.00     0.007 C 
HETATM    3  C10 UNL     1      -3.624  47.690 -21.744  1.00  0.00     0.015 C 
HETATM    4  C11 UNL     1      -3.115  49.148 -21.682  1.00  0.00    -0.013 C 
HETATM    5  C12 UNL     1      -4.385  50.030 -21.453  1.00  0.00     0.021 C 
HETATM    6  C13 UNL     1      -2.417  49.737 -22.901  1.00  0.00    -0.070 C 
HETATM    7  C14 UNL     1      -2.707  49.347 -24.155  1.00  0.00    -0.022 C 
HETATM    8  C15 UNL     1      -2.169  49.995 -25.391  1.00  0.00     0.034 C 
HETATM    9  C16 UNL     1      -1.073  51.064 -25.163  1.00  0.00     0.013 C 
HETATM   10  C17 UNL     1      -0.794  51.933 -26.448  1.00  0.00     0.018 C 
HETATM   11  C18 UNL     1      -2.043  52.255 -27.297  1.00  0.00     0.023 C 
HETATM   12  C19 UNL     1       0.201  51.191 -27.367  1.00  0.00     0.023 C 
HETATM   13  C20 UNL     1      -0.123  53.250 -26.047  1.00  0.00     0.135 C 
HETATM   14  O1  UNL     1      -0.194  54.268 -26.736  1.00  0.00    -0.297 OA
HETATM   15  C21 UNL     1       0.727  53.229 -24.806  1.00  0.00     0.080 C 
HETATM   16  C22 UNL     1      -0.069  52.819 -23.579  1.00  0.00     0.017 C 
HETATM   17  C23 UNL     1      -1.292  51.884 -23.835  1.00  0.00    -0.031 C 
HETATM   18  C24 UNL     1      -2.570  52.754 -23.918  1.00  0.00     0.016 C 
HETATM   19  C25 UNL     1      -1.392  50.844 -22.642  1.00  0.00     0.024 C 
HETATM   20  C26 UNL     1      -1.515  51.478 -21.228  1.00  0.00     0.010 C 
HETATM   21  C27 UNL     1      -1.699  50.489 -20.050  1.00  0.00     0.011 C 
HETATM   22  C28 UNL     1      -2.122  49.068 -20.473  1.00  0.00    -0.029 C 
HETATM   23  C29 UNL     1      -0.837  48.238 -20.772  1.00  0.00     0.016 C 
ENDROOT
BRANCH   1  24
HETATM   24  C6  UNL     1      -2.309  47.827 -18.103  1.00  0.00    -0.014 C 
HETATM   25  C7  UNL     1      -3.141  46.847 -17.265  1.00  0.00     0.010 C 
BRANCH  24  26
HETATM   26  C5  UNL     1      -1.908  49.069 -17.257  1.00  0.00     0.008 C 
BRANCH  26  27
HETATM   27  C4  UNL     1      -0.475  49.030 -16.717  1.00  0.00     0.028 C 
BRANCH  27  28
HETATM   28  C3  UNL     1       0.323  50.231 -17.152  1.00  0.00    -0.022 C 
HETATM   29  C2  UNL     1       0.738  51.245 -16.366  1.00  0.00    -0.064 C 
HETATM   30  C1  UNL     1       1.571  52.366 -16.927  1.00  0.00     0.045 C 
BRANCH  29  31
HETATM   31  C30 UNL     1       0.407  51.363 -14.900  1.00  0.00     0.197 C 
BRANCH  31  32
HETATM   32  O2  UNL     1       0.639  52.690 -14.450  1.00  0.00    -0.397 OA
HETATM   33  H48 UNL     1       0.516  53.281 -15.213  1.00  0.00     0.209 HD
ENDBRANCH  31  32
ENDBRANCH  29  31
ENDBRANCH  27  28
ENDBRANCH  26  27
ENDBRANCH  24  26
ENDBRANCH   1  24
TORSDOF 6
ENDMDL
