MODEL 1
REMARK minimizedAffinity -7.97398472
REMARK CNNscore 0.69010514
REMARK CNNaffinity 7.17012787
REMARK  10 active torsions:
REMARK  status: ('A' for Active; 'I' for Inactive)
REMARK    1  A    between atoms: O1_2  and  C2_3 
REMARK    2  A    between atoms: C4_5  and  O2_6 
REMARK    3  A    between atoms: O2_6  and  C5_7 
REMARK    4  A    between atoms: C8_10  and  C9_11 
REMARK    5  A    between atoms: N1_12  and  C10_14 
REMARK    6  A    between atoms: C10_14  and  C11_15 
REMARK    7  A    between atoms: C21_27  and  C22_28 
REMARK    8  A    between atoms: C28_36  and  O5_37 
REMARK    9  A    between atoms: C32_41  and  O6_42 
REMARK   10  A    between atoms: C36_47  and  O8_48 
ROOT
HETATM    1  C5  UNL     1       1.117  56.794  -6.844  1.00  0.00     0.127 C 
HETATM    2  C6  UNL     1      -0.248  57.032  -7.474  1.00  0.00     0.033 C 
HETATM    3  C7  UNL     1      -0.538  56.220  -8.735  1.00  0.00     0.021 C 
HETATM    4  C8  UNL     1       0.299  54.913  -8.923  1.00  0.00     0.026 C 
HETATM    5  C16 UNL     1      -0.553  53.912  -9.818  1.00  0.00     0.009 C 
HETATM    6  C17 UNL     1       0.106  53.404 -11.113  1.00  0.00     0.007 C 
HETATM    7  C18 UNL     1      -0.898  52.624 -11.971  1.00  0.00     0.013 C 
HETATM    8  C19 UNL     1      -1.529  51.408 -11.241  1.00  0.00    -0.005 C 
HETATM    9  C20 UNL     1      -0.487  50.277 -11.144  1.00  0.00     0.019 C 
HETATM   10  C21 UNL     1      -2.831  50.915 -11.949  1.00  0.00     0.028 C 
HETATM   11  C26 UNL     1      -3.897  51.934 -11.491  1.00  0.00     0.013 C 
HETATM   12  C27 UNL     1      -3.442  52.476 -10.129  1.00  0.00     0.040 C 
HETATM   13  C28 UNL     1      -2.079  51.819  -9.840  1.00  0.00     0.070 C 
HETATM   14  C29 UNL     1      -1.090  52.691  -9.025  1.00  0.00     0.026 C 
HETATM   15  C30 UNL     1      -1.658  53.142  -7.675  1.00  0.00     0.011 C 
HETATM   16  C31 UNL     1      -0.610  53.817  -6.780  1.00  0.00     0.039 C 
HETATM   17  C32 UNL     1       0.652  54.320  -7.527  1.00  0.00     0.073 C 
HETATM   18  C33 UNL     1       1.444  55.309  -6.641  1.00  0.00     0.071 C 
ENDROOT
BRANCH   1  19
HETATM   19  O2  UNL     1       1.095  57.445  -5.569  1.00  0.00    -0.356 OA
BRANCH  19  20
HETATM   20  C4  UNL     1       0.164  56.890  -4.638  1.00  0.00     0.263 C 
HETATM   21  C3  UNL     1       0.939  56.680  -3.341  1.00  0.00     0.095 C 
HETATM   22  C2  UNL     1       0.078  56.024  -2.264  1.00  0.00     0.156 C 
HETATM   23  C36 UNL     1      -1.421  56.172  -2.580  1.00  0.00     0.175 C 
HETATM   24  C34 UNL     1      -1.733  57.515  -3.265  1.00  0.00     0.151 C 
HETATM   25  O7  UNL     1      -0.946  57.762  -4.438  1.00  0.00    -0.354 OA
HETATM   26  C35 UNL     1      -1.598  58.730  -2.345  1.00  0.00     0.042 C 
BRANCH  22  27
HETATM   27  O1  UNL     1       0.328  56.603  -0.964  1.00  0.00    -0.388 OA
HETATM   28  C1  UNL     1       1.552  57.327  -0.897  1.00  0.00     0.202 C 
ENDBRANCH  22  27
BRANCH  23  29
HETATM   29  O8  UNL     1      -2.200  55.956  -1.403  1.00  0.00    -0.390 OA
HETATM   30  H50 UNL     1      -1.723  56.424  -0.689  1.00  0.00     0.210 HD
ENDBRANCH  23  29
ENDBRANCH  19  20
ENDBRANCH   1  19
BRANCH  17  31
HETATM   31  O6  UNL     1       1.510  53.173  -7.709  1.00  0.00    -0.389 OA
HETATM   32  H42 UNL     1       1.712  52.810  -6.826  1.00  0.00     0.210 HD
ENDBRANCH  17  31
BRANCH   4  33
HETATM   33  C9  UNL     1       1.640  55.218  -9.615  1.00  0.00     0.069 C 
HETATM   34  N1  UNL     1       2.509  54.300  -9.855  1.00  0.00    -0.397 N 
ATOM     35  H1  UNL     1       2.358  53.324  -9.598  1.00  0.00     0.159 HD
BRANCH  34  36
HETATM   36  C10 UNL     1       3.729  54.756 -10.522  1.00  0.00     0.158 C 
BRANCH  36  37
HETATM   37  C11 UNL     1       4.818  55.047  -9.531  1.00  0.00    -0.025 A 
HETATM   38  C12 UNL     1       6.061  54.413  -9.600  1.00  0.00     0.011 A 
HETATM   39  C13 UNL     1       7.050  54.735  -8.676  1.00  0.00     0.018 A 
HETATM   40  C14 UNL     1       6.766  55.690  -7.713  1.00  0.00     0.087 A 
HETATM   41  N2  UNL     1       5.581  56.330  -7.619  1.00  0.00    -0.375 N 
HETATM   42  C15 UNL     1       4.641  56.002  -8.536  1.00  0.00     0.096 A 
ATOM     43  H2  UNL     1       5.403  57.025  -6.894  1.00  0.00     0.164 HD
ENDBRANCH  36  37
ENDBRANCH  34  36
ENDBRANCH   4  33
BRANCH  13  44
HETATM   44  O5  UNL     1      -2.323  50.637  -9.056  1.00  0.00    -0.389 OA
HETATM   45  H36 UNL     1      -3.166  50.235  -9.326  1.00  0.00     0.210 HD
ENDBRANCH  13  44
BRANCH  10  46
HETATM   46  C22 UNL     1      -2.763  50.672 -13.432  1.00  0.00    -0.045 A 
HETATM   47  C23 UNL     1      -3.091  51.489 -14.436  1.00  0.00     0.087 A 
HETATM   48  C24 UNL     1      -2.896  50.752 -15.684  1.00  0.00     0.283 A 
HETATM   49  O3  UNL     1      -3.070  51.212 -16.794  1.00  0.00    -0.260 OA
HETATM   50  O4  UNL     1      -2.494  49.488 -15.394  1.00  0.00    -0.314 OA
HETATM   51  C25 UNL     1      -2.363  49.347 -13.979  1.00  0.00     0.213 A 
ENDBRANCH  10  46
TORSDOF 10
ENDMDL
