MODEL 1
REMARK minimizedAffinity -10.9961863
REMARK  8 active torsions:
REMARK  status: ('A' for Active; 'I' for Inactive)
REMARK    1  A    between atoms: C2_2  and  C4_4 
REMARK    2  A    between atoms: C4_4  and  C6_6 
REMARK    3  A    between atoms: C7_7  and  C8_8 
REMARK    4  A    between atoms: C8_8  and  O1_10 
REMARK    5  A    between atoms: C8_8  and  C10_11 
REMARK    6  A    between atoms: C11_12  and  O2_13 
REMARK    7  A    between atoms: C27_30  and  C28_31 
REMARK    8  A    between atoms: C28_31  and  O4_32 
ROOT
HETATM    1  C10 UNL     1      -0.345  51.769 -25.507  1.00  0.00     0.063 C 
HETATM    2  C11 UNL     1       0.396  53.145 -25.540  1.00  0.00     0.126 C 
HETATM    3  C12 UNL     1       0.662  53.537 -24.075  1.00  0.00     0.038 C 
HETATM    4  C13 UNL     1       0.186  52.334 -23.270  1.00  0.00     0.003 C 
HETATM    5  C14 UNL     1      -0.126  52.503 -21.778  1.00  0.00    -0.004 C 
HETATM    6  C15 UNL     1       1.015  53.227 -21.045  1.00  0.00     0.006 C 
HETATM    7  C16 UNL     1       0.806  53.274 -19.534  1.00  0.00     0.006 C 
HETATM    8  C17 UNL     1       0.565  51.872 -18.972  1.00  0.00     0.005 C 
HETATM    9  C18 UNL     1       0.501  51.885 -17.441  1.00  0.00     0.088 C 
HETATM   10  C19 UNL     1       0.333  50.480 -16.904  1.00  0.00     0.149 C 
HETATM   11  O3  UNL     1       0.685  50.170 -15.768  1.00  0.00    -0.293 OA
HETATM   12  C20 UNL     1      -0.329  49.467 -17.762  1.00  0.00     0.047 C 
HETATM   13  C21 UNL     1      -0.785  49.785 -18.984  1.00  0.00    -0.013 C 
HETATM   14  C22 UNL     1      -0.668  51.164 -19.621  1.00  0.00    -0.018 C 
HETATM   15  C23 UNL     1      -1.996  51.897 -19.316  1.00  0.00     0.020 C 
HETATM   16  C24 UNL     1      -0.395  51.088 -21.169  1.00  0.00     0.002 C 
HETATM   17  C25 UNL     1      -1.465  50.316 -21.985  1.00  0.00     0.007 C 
HETATM   18  C26 UNL     1      -1.228  50.320 -23.508  1.00  0.00     0.013 C 
HETATM   19  C27 UNL     1      -1.000  51.740 -24.079  1.00  0.00    -0.006 C 
ENDROOT
BRANCH   1  20
HETATM   20  C8  UNL     1      -1.191  51.460 -26.778  1.00  0.00     0.079 C 
HETATM   21  C9  UNL     1      -2.297  52.489 -27.022  1.00  0.00     0.051 C 
BRANCH  20  22
HETATM   22  C7  UNL     1      -1.862  50.098 -26.629  1.00  0.00     0.007 C 
HETATM   23  C6  UNL     1      -3.145  49.802 -26.916  1.00  0.00    -0.023 C 
BRANCH  23  24
HETATM   24  C4  UNL     1      -3.847  48.460 -26.783  1.00  0.00     0.007 C 
HETATM   25  C5  UNL     1      -4.738  48.124 -27.990  1.00  0.00     0.014 C 
BRANCH  24  26
HETATM   26  C2  UNL     1      -4.625  48.376 -25.432  1.00  0.00    -0.015 C 
HETATM   27  C1  UNL     1      -4.583  49.695 -24.649  1.00  0.00     0.010 C 
HETATM   28  C3  UNL     1      -6.096  47.978 -25.634  1.00  0.00     0.010 C 
ENDBRANCH  24  26
ENDBRANCH  23  24
ENDBRANCH  20  22
BRANCH  20  29
HETATM   29  O1  UNL     1      -0.369  51.456 -27.939  1.00  0.00    -0.386 OA
HETATM   30  H17 UNL     1       0.298  50.756 -27.782  1.00  0.00     0.211 HD
ENDBRANCH  20  29
ENDBRANCH   1  20
BRANCH   2  31
HETATM   31  O2  UNL     1      -0.388  54.160 -26.167  1.00  0.00    -0.395 OA
HETATM   32  H20 UNL     1       0.132  54.986 -26.119  1.00  0.00     0.210 HD
ENDBRANCH   2  31
BRANCH  19  33
HETATM   33  C28 UNL     1      -2.340  52.532 -23.976  1.00  0.00     0.174 C 
BRANCH  33  34
HETATM   34  O4  UNL     1      -2.880  52.959 -25.216  1.00  0.00    -0.400 OA
HETATM   35  H44 UNL     1      -3.047  52.156 -25.745  1.00  0.00     0.209 HD
ENDBRANCH  33  34
ENDBRANCH  19  33
TORSDOF 8
ENDMDL
