MODEL 1
REMARK minimizedAffinity -7.76520348
REMARK CNNscore 0.579024374
REMARK CNNaffinity 7.33900595
REMARK  12 active torsions:
REMARK  status: ('A' for Active; 'I' for Inactive)
REMARK    1  A    between atoms: C2_2  and  C3_3 
REMARK    2  A    between atoms: C2_2  and  C10_14 
REMARK    3  A    between atoms: C3_3  and  O1_4 
REMARK    4  A    between atoms: C3_3  and  C4_5 
REMARK    5  A    between atoms: C4_5  and  C5_6 
REMARK    6  A    between atoms: C5_6  and  O2_7 
REMARK    7  A    between atoms: C5_6  and  C6_8 
REMARK    8  A    between atoms: C5_6  and  C7_10 
REMARK    9  A    between atoms: C6_8  and  O3_9 
REMARK   10  A    between atoms: C7_10  and  O4_13 
REMARK   11  A    between atoms: C19_23  and  C20_24 
REMARK   12  A    between atoms: C20_24  and  O5_25 
ROOT
HETATM    1  C10 UNL     1      -7.614   6.153  14.587  1.00  0.00     0.001 C 
HETATM    2  C11 UNL     1      -8.258   5.675  13.248  1.00  0.00     0.007 C 
HETATM    3  C12 UNL     1      -7.106   5.367  12.275  1.00  0.00     0.011 C 
HETATM    4  C13 UNL     1      -5.860   5.229  13.172  1.00  0.00    -0.032 C 
HETATM    5  C14 UNL     1      -5.934   3.790  13.794  1.00  0.00     0.016 C 
HETATM    6  C15 UNL     1      -4.497   5.449  12.428  1.00  0.00     0.004 C 
HETATM    7  C16 UNL     1      -3.987   4.178  11.721  1.00  0.00     0.007 C 
HETATM    8  C17 UNL     1      -2.706   4.353  10.900  1.00  0.00     0.007 C 
HETATM    9  C18 UNL     1      -1.845   5.565  11.294  1.00  0.00     0.008 C 
HETATM   10  C19 UNL     1      -0.384   5.408  10.820  1.00  0.00     0.083 C 
HETATM   11  C21 UNL     1       0.367   4.429  11.711  1.00  0.00     0.133 C 
HETATM   12  O6  UNL     1       1.373   3.835  11.316  1.00  0.00    -0.297 OA
HETATM   13  C22 UNL     1      -0.164   4.177  13.100  1.00  0.00     0.079 C 
HETATM   14  C23 UNL     1      -0.809   5.434  13.651  1.00  0.00     0.018 C 
HETATM   15  C24 UNL     1      -1.969   5.884  12.787  1.00  0.00    -0.027 A 
HETATM   16  C25 UNL     1      -2.595   7.220  13.076  1.00  0.00     0.021 A 
HETATM   17  C26 UNL     1      -3.393   5.965  13.390  1.00  0.00    -0.027 A 
HETATM   18  C27 UNL     1      -3.671   5.769  14.876  1.00  0.00     0.011 C 
HETATM   19  C28 UNL     1      -5.075   6.221  15.346  1.00  0.00     0.011 C 
HETATM   20  C29 UNL     1      -6.108   6.384  14.209  1.00  0.00    -0.032 C 
HETATM   21  C30 UNL     1      -5.955   7.806  13.611  1.00  0.00     0.016 C 
ENDROOT
BRANCH   1  22
HETATM   22  C2  UNL     1      -8.476   7.221  15.358  1.00  0.00     0.015 C 
HETATM   23  C1  UNL     1      -8.145   7.356  16.857  1.00  0.00     0.013 C 
BRANCH  22  24
HETATM   24  C3  UNL     1     -10.012   7.064  15.133  1.00  0.00     0.125 C 
BRANCH  24  25
HETATM   25  O1  UNL     1     -10.331   6.325  13.967  1.00  0.00    -0.395 OA
HETATM   26  H6  UNL     1      -9.632   5.682  13.767  1.00  0.00     0.210 HD
ENDBRANCH  24  25
BRANCH  24  27
HETATM   27  C4  UNL     1     -10.861   8.347  15.115  1.00  0.00     0.075 C 
BRANCH  27  28
HETATM   28  C5  UNL     1     -12.408   8.332  14.914  1.00  0.00     0.111 C 
BRANCH  28  29
HETATM   29  O2  UNL     1     -12.764   6.939  15.268  1.00  0.00    -0.384 OA
HETATM   30  H9  UNL     1     -12.670   6.902  16.242  1.00  0.00     0.210 HD
ENDBRANCH  28  29
BRANCH  28  31
HETATM   31  C6  UNL     1     -13.174   9.204  15.934  1.00  0.00     0.205 C 
BRANCH  31  32
HETATM   32  O3  UNL     1     -13.443   8.429  17.108  1.00  0.00    -0.398 OA
HETATM   33  H12 UNL     1     -14.024   8.972  17.669  1.00  0.00     0.209 HD
ENDBRANCH  31  32
ENDBRANCH  28  31
BRANCH  28  34
HETATM   34  C7  UNL     1     -12.979   8.512  13.458  1.00  0.00     0.084 C 
HETATM   35  C8  UNL     1     -13.645   7.251  12.893  1.00  0.00     0.049 C 
HETATM   36  C9  UNL     1     -12.028   9.128  12.426  1.00  0.00     0.049 C 
BRANCH  34  37
HETATM   37  O4  UNL     1     -14.056   9.482  13.559  1.00  0.00    -0.387 OA
HETATM   38  H19 UNL     1     -14.510   9.243  14.398  1.00  0.00     0.210 HD
ENDBRANCH  34  37
ENDBRANCH  28  34
ENDBRANCH  27  28
ENDBRANCH  24  27
ENDBRANCH  22  24
ENDBRANCH   1  22
BRANCH  10  39
HETATM   39  C20 UNL     1       0.374   6.741  10.805  1.00  0.00     0.176 C 
BRANCH  39  40
HETATM   40  O5  UNL     1       0.058   7.450   9.610  1.00  0.00    -0.400 OA
HETATM   41  H37 UNL     1       0.781   8.075   9.435  1.00  0.00     0.209 HD
ENDBRANCH  39  40
ENDBRANCH  10  39
TORSDOF 12
ENDMDL
