MODEL 1
REMARK minimizedAffinity -7.68048525
REMARK CNNscore 0.642868459
REMARK CNNaffinity 6.82445669
REMARK  4 active torsions:
REMARK  status: ('A' for Active; 'I' for Inactive)
REMARK    1  A    between atoms: C4_4  and  C5_5 
REMARK    2  A    between atoms: C5_5  and  C6_6 
REMARK    3  A    between atoms: C6_6  and  C7_7 
REMARK    4  A    between atoms: C7_7  and  C9_9 
ROOT
HETATM    1  C9  UNL     1       4.612  54.669  -8.687  1.00  0.00    -0.002 C 
HETATM    2  C10 UNL     1       4.131  56.121  -8.419  1.00  0.00     0.006 C 
HETATM    3  C11 UNL     1       2.663  56.213  -8.862  1.00  0.00     0.011 C 
HETATM    4  C12 UNL     1       2.223  54.760  -9.127  1.00  0.00    -0.032 C 
HETATM    5  C13 UNL     1       1.766  54.166  -7.756  1.00  0.00     0.016 C 
HETATM    6  C14 UNL     1       1.090  54.617 -10.178  1.00  0.00     0.004 C 
HETATM    7  C15 UNL     1      -0.236  55.272  -9.742  1.00  0.00     0.007 C 
HETATM    8  C16 UNL     1      -1.415  54.319  -9.591  1.00  0.00     0.007 C 
HETATM    9  C17 UNL     1      -1.645  53.574 -10.918  1.00  0.00     0.010 C 
HETATM   10  C18 UNL     1      -3.034  52.866 -11.036  1.00  0.00     0.018 C 
HETATM   11  C19 UNL     1      -3.346  52.545 -12.515  1.00  0.00     0.023 C 
HETATM   12  C20 UNL     1      -4.184  53.764 -10.529  1.00  0.00     0.023 C 
HETATM   13  C21 UNL     1      -3.067  51.557 -10.240  1.00  0.00     0.135 C 
HETATM   14  O1  UNL     1      -4.126  51.058  -9.850  1.00  0.00    -0.297 OA
HETATM   15  C22 UNL     1      -1.758  50.878  -9.926  1.00  0.00     0.080 C 
HETATM   16  C23 UNL     1      -0.756  51.149 -11.026  1.00  0.00     0.018 C 
HETATM   17  C24 UNL     1      -0.442  52.635 -11.134  1.00  0.00    -0.026 A 
HETATM   18  C25 UNL     1       0.572  53.034 -12.174  1.00  0.00     0.021 A 
HETATM   19  C26 UNL     1       0.964  53.163 -10.713  1.00  0.00    -0.027 A 
HETATM   20  C27 UNL     1       1.985  52.134 -10.194  1.00  0.00     0.011 C 
HETATM   21  C28 UNL     1       3.373  52.616  -9.746  1.00  0.00     0.011 C 
HETATM   22  C29 UNL     1       3.547  54.134  -9.699  1.00  0.00    -0.032 C 
HETATM   23  C30 UNL     1       3.907  54.616 -11.136  1.00  0.00     0.016 C 
ENDROOT
BRANCH   1  24
HETATM   24  C7  UNL     1       6.123  54.606  -9.046  1.00  0.00    -0.014 C 
HETATM   25  C8  UNL     1       6.678  53.177  -9.003  1.00  0.00     0.010 C 
BRANCH  24  26
HETATM   26  C6  UNL     1       6.997  55.534  -8.160  1.00  0.00     0.008 C 
BRANCH  26  27
HETATM   27  C5  UNL     1       7.068  55.149  -6.678  1.00  0.00     0.028 C 
BRANCH  27  28
HETATM   28  C4  UNL     1       8.232  55.824  -6.004  1.00  0.00    -0.025 C 
HETATM   29  C2  UNL     1       8.254  57.038  -5.419  1.00  0.00    -0.091 C 
HETATM   30  C1  UNL     1       9.524  57.578  -4.816  1.00  0.00     0.042 C 
HETATM   31  C3  UNL     1       7.068  57.955  -5.287  1.00  0.00     0.042 C 
ENDBRANCH  27  28
ENDBRANCH  26  27
ENDBRANCH  24  26
ENDBRANCH   1  24
TORSDOF 4
ENDMDL
