MODEL 1
REMARK minimizedAffinity -8.66542912
REMARK CNNscore 0.587405801
REMARK CNNaffinity 7.3609395
REMARK  12 active torsions:
REMARK  status: ('A' for Active; 'I' for Inactive)
REMARK    1  A    between atoms: C3_3  and  O1_4 
REMARK    2  A    between atoms: N1_14  and  O2_16 
REMARK    3  A    between atoms: O2_16  and  C13_17 
REMARK    4  A    between atoms: C13_17  and  C14_18 
REMARK       I    between atoms: C14_18  and  N2_20 
REMARK    5  A    between atoms: N2_20  and  C15_21 
REMARK    6  A    between atoms: C15_21  and  C16_22 
REMARK    7  A    between atoms: C15_21  and  C26_36 
REMARK       I    between atoms: C16_22  and  N3_24 
REMARK    8  A    between atoms: N3_24  and  C17_25 
REMARK    9  A    between atoms: C17_25  and  C18_26 
REMARK   10  A    between atoms: C17_25  and  C25_33 
REMARK   11  A    between atoms: C18_26  and  C19_27 
REMARK   12  A    between atoms: C25_33  and  O6_35 
ROOT
HETATM    1  C1  UNL     1      -2.755  51.685 -26.977  1.00  0.00     0.015 C 
HETATM    2  C2  UNL     1      -3.381  51.397 -25.992  1.00  0.00    -0.078 C 
HETATM    3  C3  UNL     1      -4.146  51.023 -24.778  1.00  0.00     0.128 C 
HETATM    4  C4  UNL     1      -4.514  49.541 -24.860  1.00  0.00     0.052 C 
HETATM    5  C5  UNL     1      -3.254  48.809 -24.416  1.00  0.00     0.010 C 
HETATM    6  C6  UNL     1      -2.524  49.764 -23.444  1.00  0.00     0.002 C 
HETATM    7  C7  UNL     1      -2.192  49.172 -22.038  1.00  0.00    -0.004 C 
HETATM    8  C8  UNL     1      -3.086  48.020 -21.526  1.00  0.00     0.010 C 
HETATM    9  C9  UNL     1      -2.663  47.511 -20.143  1.00  0.00     0.035 C 
HETATM   10  C10 UNL     1      -2.479  48.621 -19.136  1.00  0.00    -0.069 C 
HETATM   11  C11 UNL     1      -3.100  48.559 -17.947  1.00  0.00     0.030 C 
HETATM   12  C12 UNL     1      -3.015  49.701 -16.993  1.00  0.00     0.032 C 
HETATM   13  N1  UNL     1      -3.231  49.465 -15.730  1.00  0.00    -0.271 N 
ATOM     14  H1  UNL     1      -3.462  48.544 -15.358  1.00  0.00     0.194 HD
HETATM   15  C29 UNL     1      -2.684  51.044 -17.597  1.00  0.00     0.060 C 
HETATM   16  C30 UNL     1      -1.487  50.915 -18.526  1.00  0.00     0.020 C 
HETATM   17  C31 UNL     1      -1.584  49.769 -19.585  1.00  0.00    -0.016 C 
HETATM   18  C32 UNL     1      -0.117  49.253 -19.737  1.00  0.00     0.020 C 
HETATM   19  C33 UNL     1      -2.098  50.298 -20.970  1.00  0.00     0.002 C 
HETATM   20  C34 UNL     1      -3.443  51.059 -20.876  1.00  0.00     0.007 C 
HETATM   21  C35 UNL     1      -4.206  51.193 -22.202  1.00  0.00     0.014 C 
HETATM   22  C36 UNL     1      -3.312  51.116 -23.458  1.00  0.00     0.003 C 
HETATM   23  C37 UNL     1      -2.390  52.358 -23.485  1.00  0.00     0.020 C 
ENDROOT
BRANCH   3  24
HETATM   24  O1  UNL     1      -5.298  51.851 -24.729  1.00  0.00    -0.377 OA
HETATM   25  H2  UNL     1      -6.026  51.347 -24.329  1.00  0.00     0.211 HD
ENDBRANCH   3  24
BRANCH  13  26
HETATM   26  O2  UNL     1      -3.113  50.616 -14.940  1.00  0.00    -0.271 OA
BRANCH  26  27
HETATM   27  C13 UNL     1      -1.982  50.496 -14.084  1.00  0.00     0.303 C 
BRANCH  27  28
HETATM   28  C14 UNL     1      -2.280  51.030 -12.695  1.00  0.00     0.244 C 
HETATM   29  O3  UNL     1      -3.122  50.502 -11.962  1.00  0.00    -0.271 OA
HETATM   30  N2  UNL     1      -1.598  52.188 -12.357  1.00  0.00    -0.346 N 
HETATM   31  H16 UNL     1      -0.723  52.326 -12.862  1.00  0.00     0.163 HD
BRANCH  30  32
HETATM   32  C15 UNL     1      -1.675  52.708 -10.999  1.00  0.00     0.180 C 
BRANCH  32  33
HETATM   33  C16 UNL     1      -0.243  52.741 -10.429  1.00  0.00     0.241 C 
HETATM   34  O4  UNL     1      -0.008  52.891  -9.232  1.00  0.00    -0.271 OA
HETATM   35  N3  UNL     1       0.749  52.517 -11.361  1.00  0.00    -0.345 N 
HETATM   36  H18 UNL     1       0.485  52.662 -12.331  1.00  0.00     0.163 HD
BRANCH  35  37
HETATM   37  C17 UNL     1       2.114  52.992 -11.089  1.00  0.00     0.186 C 
BRANCH  37  38
HETATM   38  C18 UNL     1       2.150  54.268 -10.227  1.00  0.00     0.074 C 
BRANCH  38  39
HETATM   39  C19 UNL     1       3.501  54.598  -9.637  1.00  0.00    -0.056 A 
HETATM   40  C20 UNL     1       3.715  54.406  -8.264  1.00  0.00     0.007 A 
HETATM   41  C21 UNL     1       4.967  54.646  -7.696  1.00  0.00     0.001 A 
HETATM   42  C22 UNL     1       6.015  55.076  -8.501  1.00  0.00     0.000 A 
HETATM   43  C23 UNL     1       5.811  55.277  -9.865  1.00  0.00     0.001 A 
HETATM   44  C24 UNL     1       4.554  55.045 -10.432  1.00  0.00     0.007 A 
ENDBRANCH  38  39
ENDBRANCH  37  38
BRANCH  37  45
HETATM   45  C25 UNL     1       2.912  51.867 -10.434  1.00  0.00     0.163 C 
HETATM   46  O5  UNL     1       4.025  51.490 -10.765  1.00  0.00    -0.648 OA
BRANCH  45  47
HETATM   47  O6  UNL     1       2.273  51.296  -9.371  1.00  0.00    -0.775 OA
HETATM   48  H27 UNL     1       2.840  50.537  -9.132  1.00  0.00     0.167 HD
ENDBRANCH  45  47
ENDBRANCH  37  45
ENDBRANCH  35  37
ENDBRANCH  32  33
BRANCH  32  49
HETATM   49  C26 UNL     1      -2.404  54.065 -10.945  1.00  0.00     0.009 C 
HETATM   50  C27 UNL     1      -1.640  55.149 -10.181  1.00  0.00     0.012 C 
HETATM   51  C28 UNL     1      -3.817  53.923 -10.355  1.00  0.00     0.012 C 
ENDBRANCH  32  49
ENDBRANCH  30  32
ENDBRANCH  27  28
ENDBRANCH  26  27
ENDBRANCH  13  26
TORSDOF 12
ENDMDL
