MODEL 1
REMARK minimizedAffinity -6.52575064
REMARK CNNscore 0.699311078
REMARK CNNaffinity 6.64391375
REMARK  8 active torsions:
REMARK  status: ('A' for Active; 'I' for Inactive)
REMARK    1  A    between atoms: C2_2  and  C30_33 
REMARK    2  A    between atoms: C3_3  and  C4_4 
REMARK    3  A    between atoms: C4_4  and  C5_5 
REMARK    4  A    between atoms: C5_5  and  C6_6 
REMARK    5  A    between atoms: C6_6  and  C8_8 
REMARK    6  A    between atoms: C15_15  and  O1_16 
REMARK    7  A    between atoms: C23_24  and  O2_25 
REMARK    8  A    between atoms: C30_33  and  O4_34 
ROOT
HETATM    1  C8  UNL     1     -12.324   9.136  14.576  1.00  0.00    -0.002 C 
HETATM    2  C9  UNL     1     -12.333   9.304  13.040  1.00  0.00     0.007 C 
HETATM    3  C10 UNL     1     -13.526   8.473  12.513  1.00  0.00     0.015 C 
HETATM    4  C11 UNL     1     -14.393   8.168  13.756  1.00  0.00    -0.005 C 
HETATM    5  C12 UNL     1     -15.282   9.425  14.009  1.00  0.00     0.021 C 
HETATM    6  C13 UNL     1     -15.377   7.005  13.779  1.00  0.00     0.002 C 
HETATM    7  C14 UNL     1     -15.670   6.356  14.941  1.00  0.00    -0.032 C 
HETATM    8  C15 UNL     1     -14.989   6.746  16.257  1.00  0.00     0.149 C 
HETATM    9  C16 UNL     1     -13.887   7.830  16.196  1.00  0.00     0.047 C 
HETATM   10  C17 UNL     1     -13.245   7.906  14.810  1.00  0.00    -0.026 C 
HETATM   11  C18 UNL     1     -12.484   6.574  14.545  1.00  0.00     0.016 C 
HETATM   12  C19 UNL     1     -16.607   5.111  14.946  1.00  0.00    -0.013 C 
HETATM   13  C20 UNL     1     -15.667   3.931  14.590  1.00  0.00     0.021 C 
HETATM   14  C21 UNL     1     -17.298   4.822  16.295  1.00  0.00     0.017 C 
HETATM   15  C22 UNL     1     -18.232   3.609  16.291  1.00  0.00     0.033 C 
HETATM   16  C23 UNL     1     -18.945   3.323  14.966  1.00  0.00     0.126 C 
HETATM   17  C24 UNL     1     -19.069   4.538  14.011  1.00  0.00    -0.017 C 
HETATM   18  C25 UNL     1     -19.583   4.058  12.633  1.00  0.00     0.018 C 
HETATM   19  C26 UNL     1     -20.194   5.450  14.583  1.00  0.00     0.018 C 
HETATM   20  C27 UNL     1     -17.743   5.405  13.909  1.00  0.00     0.015 C 
HETATM   21  C28 UNL     1     -17.136   5.553  12.512  1.00  0.00     0.090 C 
HETATM   22  C29 UNL     1     -16.035   6.593  12.492  1.00  0.00     0.157 C 
HETATM   23  O3  UNL     1     -15.687   7.083  11.417  1.00  0.00    -0.293 OA
ENDROOT
BRANCH   1  24
HETATM   24  C6  UNL     1     -10.969   9.299  15.321  1.00  0.00    -0.014 C 
HETATM   25  C7  UNL     1     -10.777  10.773  15.724  1.00  0.00     0.010 C 
BRANCH  24  26
HETATM   26  C5  UNL     1      -9.655   8.701  14.763  1.00  0.00     0.008 C 
BRANCH  26  27
HETATM   27  C4  UNL     1      -9.243   7.255  15.058  1.00  0.00     0.028 C 
BRANCH  27  28
HETATM   28  C3  UNL     1      -7.870   6.867  14.589  1.00  0.00    -0.022 C 
HETATM   29  C2  UNL     1      -7.555   5.969  13.633  1.00  0.00    -0.064 C 
HETATM   30  C1  UNL     1      -8.561   5.138  12.881  1.00  0.00     0.045 C 
BRANCH  29  31
HETATM   31  C30 UNL     1      -6.118   5.708  13.264  1.00  0.00     0.197 C 
BRANCH  31  32
HETATM   32  O4  UNL     1      -5.975   4.343  12.906  1.00  0.00    -0.397 OA
HETATM   33  H48 UNL     1      -5.066   4.234  12.581  1.00  0.00     0.209 HD
ENDBRANCH  31  32
ENDBRANCH  29  31
ENDBRANCH  27  28
ENDBRANCH  26  27
ENDBRANCH  24  26
ENDBRANCH   1  24
BRANCH   8  34
HETATM   34  O1  UNL     1     -15.986   7.216  17.158  1.00  0.00    -0.391 OA
HETATM   35  H22 UNL     1     -15.554   7.356  18.018  1.00  0.00     0.210 HD
ENDBRANCH   8  34
BRANCH  16  36
HETATM   36  O2  UNL     1     -18.281   2.233  14.326  1.00  0.00    -0.395 OA
HETATM   37  H36 UNL     1     -18.915   1.807  13.724  1.00  0.00     0.210 HD
ENDBRANCH  16  36
TORSDOF 8
ENDMDL
