MODEL 1
REMARK minimizedAffinity -9.69292259
REMARK  6 active torsions:
REMARK  status: ('A' for Active; 'I' for Inactive)
REMARK    1  A    between atoms: O1_2  and  C2_3 
REMARK    2  A    between atoms: C9_12  and  C10_13 
REMARK    3  A    between atoms: C13_16  and  O4_17 
REMARK    4  A    between atoms: O4_17  and  C14_18 
REMARK    5  A    between atoms: C14_18  and  C15_19 
REMARK       I    between atoms: C15_19  and  N1_21 
REMARK    6  A    between atoms: N1_21  and  C16_22 
ROOT
HETATM    1  C10 UNL     1      -5.756   5.687  13.269  1.00  0.00    -0.020 A 
HETATM    2  C11 UNL     1      -5.514   4.331  13.014  1.00  0.00     0.015 A 
HETATM    3  C12 UNL     1      -4.220   3.870  12.743  1.00  0.00     0.037 A 
HETATM    4  C13 UNL     1      -3.148   4.761  12.720  1.00  0.00     0.069 A 
HETATM    5  C23 UNL     1      -3.383   6.115  12.972  1.00  0.00     0.037 A 
HETATM    6  C24 UNL     1      -4.674   6.577  13.243  1.00  0.00     0.015 A 
ENDROOT
BRANCH   4   7
HETATM    7  O4  UNL     1      -1.843   4.446  12.465  1.00  0.00    -0.342 OA
BRANCH   7   8
HETATM    8  C14 UNL     1      -0.863   5.418  12.827  1.00  0.00     0.278 C 
BRANCH   8   9
HETATM    9  C15 UNL     1       0.147   5.603  11.694  1.00  0.00     0.242 C 
HETATM   10  O5  UNL     1       0.351   4.734  10.850  1.00  0.00    -0.271 OA
HETATM   11  N1  UNL     1       0.769   6.836  11.685  1.00  0.00    -0.354 N 
HETATM   12  H11 UNL     1       0.671   7.375  12.541  1.00  0.00     0.162 HD
BRANCH  11  13
HETATM   13  C16 UNL     1       1.846   7.158  10.756  1.00  0.00     0.089 C 
HETATM   14  C17 UNL     1       3.036   6.215  10.959  1.00  0.00     0.051 C 
HETATM   15  C18 UNL     1       3.296   5.368   9.724  1.00  0.00     0.171 C 
HETATM   16  O6  UNL     1       3.522   6.196   8.588  1.00  0.00    -0.381 OA
HETATM   17  C19 UNL     1       2.480   7.137   8.287  1.00  0.00     0.055 C 
HETATM   18  C20 UNL     1       1.936   6.774   6.901  1.00  0.00     0.045 C 
HETATM   19  C21 UNL     1       3.145   8.517   8.219  1.00  0.00     0.045 C 
HETATM   20  C22 UNL     1       1.331   7.128   9.313  1.00  0.00     0.062 C 
ENDBRANCH  11  13
ENDBRANCH   8   9
ENDBRANCH   7   8
ENDBRANCH   4   7
BRANCH   1  21
HETATM   21  C9  UNL     1      -7.125   6.162  13.558  1.00  0.00     0.051 A 
HETATM   22  C8  UNL     1      -8.289   5.648  12.778  1.00  0.00     0.299 A 
HETATM   23  O2  UNL     1      -9.540   6.143  13.122  1.00  0.00    -0.271 OA
HETATM   24  O3  UNL     1      -8.159   4.827  11.875  1.00  0.00    -0.259 OA
HETATM   25  C7  UNL     1      -9.728   7.080  14.161  1.00  0.00     0.123 A 
HETATM   26  C2  UNL     1     -11.033   7.516  14.431  1.00  0.00     0.102 A 
HETATM   27  C6  UNL     1      -8.631   7.539  14.885  1.00  0.00     0.002 A 
HETATM   28  C3  UNL     1     -11.222   8.441  15.460  1.00  0.00     0.040 A 
HETATM   29  C4  UNL     1     -10.129   8.911  16.197  1.00  0.00     0.004 A 
HETATM   30  C5  UNL     1      -8.838   8.463  15.911  1.00  0.00     0.014 A 
HETATM   31  C25 UNL     1      -7.305   7.047  14.554  1.00  0.00     0.032 A 
BRANCH  26  32
HETATM   32  O1  UNL     1     -12.023   6.988  13.648  1.00  0.00    -0.353 OA
HETATM   33  C1  UNL     1     -12.998   6.175  14.285  1.00  0.00     0.210 C 
ENDBRANCH  26  32
ENDBRANCH   1  21
TORSDOF 6
ENDMDL
