MODEL 1
REMARK minimizedAffinity -8.35894966
REMARK CNNscore 0.344287008
REMARK CNNaffinity 6.1653161
REMARK  2 active torsions:
REMARK  status: ('A' for Active; 'I' for Inactive)
REMARK    1  A    between atoms: C21_27  and  C22_28 
REMARK    2  A    between atoms: C22_28  and  O7_30 
ROOT
HETATM    1  C1  UNL     1       0.008   8.481   8.208  1.00  0.00     0.043 C 
HETATM    2  C2  UNL     1       0.656   8.470   9.570  1.00  0.00    -0.076 C 
HETATM    3  C3  UNL     1      -0.102   8.783  10.641  1.00  0.00     0.084 C 
HETATM    4  C4  UNL     1       0.317   8.914  12.061  1.00  0.00     0.283 C 
HETATM    5  O1  UNL     1       1.445   8.847  12.509  1.00  0.00    -0.260 OA
HETATM    6  O2  UNL     1      -0.818   9.143  12.768  1.00  0.00    -0.317 OA
HETATM    7  C5  UNL     1      -0.690   9.250  14.194  1.00  0.00     0.195 C 
HETATM    8  C6  UNL     1      -2.129   9.237  14.856  1.00  0.00     0.053 C 
HETATM    9  C7  UNL     1      -1.894   8.956  16.404  1.00  0.00     0.159 C 
HETATM   10  C8  UNL     1      -2.541   9.869  17.408  1.00  0.00     0.011 C 
HETATM   11  C9  UNL     1      -3.126  11.035  17.090  1.00  0.00    -0.054 C 
HETATM   12  C10 UNL     1      -3.780  11.889  18.140  1.00  0.00     0.046 C 
HETATM   13  C11 UNL     1      -3.205  11.529  15.713  1.00  0.00     0.180 A 
HETATM   14  O3  UNL     1      -4.064  10.903  14.757  1.00  0.00    -0.370 OA
HETATM   15  C12 UNL     1      -2.663  10.662  14.595  1.00  0.00     0.170 A 
HETATM   16  O4  UNL     1      -2.152   7.604  16.836  1.00  0.00    -0.372 OA
HETATM   17  C13 UNL     1      -3.293   6.910  16.305  1.00  0.00     0.162 C 
HETATM   18  C14 UNL     1      -2.756   5.852  15.345  1.00  0.00     0.068 C 
HETATM   19  C15 UNL     1      -2.257   6.713  14.166  1.00  0.00     0.147 C 
HETATM   20  O5  UNL     1      -2.389   6.074  12.890  1.00  0.00    -0.312 OA
HETATM   21  C16 UNL     1      -1.465   5.102  12.663  1.00  0.00     0.283 C 
HETATM   22  O6  UNL     1      -0.878   4.463  13.519  1.00  0.00    -0.260 OA
HETATM   23  C17 UNL     1      -1.203   5.061  11.209  1.00  0.00     0.082 C 
HETATM   24  C18 UNL     1       0.006   4.860  10.657  1.00  0.00     0.006 C 
HETATM   25  C19 UNL     1       1.233   4.561  11.360  1.00  0.00    -0.001 C 
HETATM   26  C20 UNL     1       2.492   4.604  10.897  1.00  0.00     0.007 C 
HETATM   27  C21 UNL     1       3.104   5.042   9.589  1.00  0.00     0.172 C 
HETATM   28  O8  UNL     1       2.195   5.826   8.804  1.00  0.00    -0.379 OA
HETATM   29  C24 UNL     1       2.655   7.159   8.563  1.00  0.00     0.173 C 
HETATM   30  C25 UNL     1       2.142   8.148   9.624  1.00  0.00     0.060 C 
HETATM   31  C26 UNL     1      -3.076   8.097  14.249  1.00  0.00     0.034 C 
HETATM   32  C27 UNL     1      -3.754   8.432  12.913  1.00  0.00     0.022 C 
HETATM   33  C28 UNL     1      -4.060   7.727  15.343  1.00  0.00     0.119 A 
HETATM   34  C29 UNL     1      -5.555   7.523  15.153  1.00  0.00     0.210 A 
HETATM   35  O9  UNL     1      -5.008   8.655  15.847  1.00  0.00    -0.371 OA
ENDROOT
BRANCH  27  36
HETATM   36  C22 UNL     1       3.550   3.821   8.742  1.00  0.00     0.146 C 
HETATM   37  C23 UNL     1       4.987   3.412   9.046  1.00  0.00     0.042 C 
BRANCH  36  38
HETATM   38  O7  UNL     1       3.487   4.128   7.342  1.00  0.00    -0.393 OA
HETATM   39  H27 UNL     1       3.738   5.070   7.275  1.00  0.00     0.210 HD
ENDBRANCH  36  38
ENDBRANCH  27  36
TORSDOF 2
ENDMDL
