MODEL 1
REMARK minimizedAffinity -7.86573601
REMARK CNNscore 0.664814949
REMARK CNNaffinity 6.985394
REMARK  6 active torsions:
REMARK  status: ('A' for Active; 'I' for Inactive)
REMARK    1  A    between atoms: C2_2  and  C4_4 
REMARK    2  A    between atoms: C4_4  and  O1_5 
REMARK    3  A    between atoms: C4_4  and  C5_6 
REMARK    4  A    between atoms: C5_6  and  C6_7 
REMARK    5  A    between atoms: C6_7  and  C7_8 
REMARK    6  A    between atoms: C7_8  and  C9_10 
ROOT
HETATM    1  C9  UNL     1      -1.729  52.659  -9.519  1.00  0.00    -0.001 C 
HETATM    2  C10 UNL     1      -1.342  51.495  -8.561  1.00  0.00     0.007 C 
HETATM    3  C11 UNL     1       0.176  51.580  -8.317  1.00  0.00     0.024 C 
HETATM    4  C12 UNL     1       0.583  52.896  -8.939  1.00  0.00     0.092 C 
HETATM    5  C13 UNL     1       0.417  54.077  -7.945  1.00  0.00     0.272 C 
HETATM    6  O2  UNL     1      -0.343  54.155  -6.995  1.00  0.00    -0.264 OA
HETATM    7  O3  UNL     1       1.296  55.082  -8.308  1.00  0.00    -0.305 OA
HETATM    8  C14 UNL     1       2.048  54.647  -9.467  1.00  0.00     0.113 C 
HETATM    9  C15 UNL     1       1.201  55.048 -10.717  1.00  0.00     0.043 C 
HETATM   10  C16 UNL     1      -0.272  54.553 -10.650  1.00  0.00     0.014 C 
HETATM   11  C17 UNL     1      -0.372  53.081 -10.168  1.00  0.00    -0.020 C 
HETATM   12  C18 UNL     1      -0.011  52.165 -11.358  1.00  0.00     0.017 C 
HETATM   13  C19 UNL     1       1.992  53.157  -9.303  1.00  0.00     0.137 A 
HETATM   14  O4  UNL     1       2.731  52.292 -10.145  1.00  0.00    -0.364 OA
HETATM   15  C20 UNL     1       3.159  52.353  -8.771  1.00  0.00     0.162 A 
HETATM   16  C21 UNL     1       4.480  53.024  -8.542  1.00  0.00     0.042 C 
HETATM   17  C22 UNL     1       4.269  54.519  -8.220  1.00  0.00     0.014 C 
HETATM   18  C23 UNL     1       5.521  55.264  -7.645  1.00  0.00     0.018 C 
HETATM   19  C24 UNL     1       5.977  54.596  -6.327  1.00  0.00     0.023 C 
HETATM   20  C25 UNL     1       6.725  55.328  -8.593  1.00  0.00     0.023 C 
HETATM   21  C26 UNL     1       5.124  56.708  -7.295  1.00  0.00     0.135 C 
HETATM   22  O5  UNL     1       5.894  57.470  -6.708  1.00  0.00    -0.297 OA
HETATM   23  C27 UNL     1       3.737  57.167  -7.682  1.00  0.00     0.080 C 
HETATM   24  C28 UNL     1       3.471  56.784  -9.131  1.00  0.00     0.020 C 
HETATM   25  C29 UNL     1       3.508  55.247  -9.404  1.00  0.00    -0.004 C 
HETATM   26  C30 UNL     1       4.192  55.050 -10.783  1.00  0.00     0.019 C 
ENDROOT
BRANCH   1  27
HETATM   27  C7  UNL     1      -3.019  52.372 -10.346  1.00  0.00    -0.014 C 
HETATM   28  C8  UNL     1      -3.934  53.567 -10.640  1.00  0.00     0.010 C 
BRANCH  27  29
HETATM   29  C6  UNL     1      -3.821  51.195  -9.750  1.00  0.00     0.007 C 
BRANCH  29  30
HETATM   30  C5  UNL     1      -4.835  50.522 -10.692  1.00  0.00     0.036 C 
BRANCH  30  31
HETATM   31  C4  UNL     1      -5.407  49.192 -10.176  1.00  0.00     0.146 C 
BRANCH  31  32
HETATM   32  C2  UNL     1      -6.916  49.109 -10.305  1.00  0.00    -0.065 C 
HETATM   33  C1  UNL     1      -7.723  49.847  -9.522  1.00  0.00     0.016 C 
HETATM   34  C3  UNL     1      -7.495  48.184 -11.340  1.00  0.00     0.045 C 
ENDBRANCH  31  32
BRANCH  31  35
HETATM   35  O1  UNL     1      -5.044  48.985  -8.816  1.00  0.00    -0.391 OA
HETATM   36  H7  UNL     1      -5.289  49.781  -8.319  1.00  0.00     0.210 HD
ENDBRANCH  31  35
ENDBRANCH  30  31
ENDBRANCH  29  30
ENDBRANCH  27  29
ENDBRANCH   1  27
TORSDOF 6
ENDMDL
