MODEL 1
REMARK minimizedAffinity -8.13777065
REMARK CNNscore 0.436002403
REMARK CNNaffinity 6.2615242
REMARK  13 active torsions:
REMARK  status: ('A' for Active; 'I' for Inactive)
REMARK    1  A    between atoms: C19_21  and  O3_22 
REMARK    2  A    between atoms: C19_21  and  C20_23 
REMARK    3  A    between atoms: C20_23  and  C21_25 
REMARK    4  A    between atoms: C21_25  and  O5_26 
REMARK    5  A    between atoms: O5_26  and  C22_27 
REMARK    6  A    between atoms: C22_27  and  C23_29 
REMARK    7  A    between atoms: C23_29  and  C24_30 
REMARK    8  A    between atoms: C24_30  and  C25_31 
REMARK       I    between atoms: C25_31  and  N1_33 
REMARK    9  A    between atoms: N1_33  and  C26_34 
REMARK   10  A    between atoms: C26_34  and  C27_35 
REMARK   11  A    between atoms: C27_35  and  C28_36 
REMARK   12  A    between atoms: C27_35  and  C29_39 
REMARK   13  A    between atoms: C28_36  and  O9_38 
ROOT
HETATM    1  C20 UNL     1       0.841  11.202  16.299  1.00  0.00     0.185 C 
HETATM    2  O4  UNL     1       1.035  12.273  15.720  1.00  0.00    -0.292 OA
ENDROOT
BRANCH   1   3
HETATM    3  C19 UNL     1       0.950   9.826  15.591  1.00  0.00     0.128 C 
HETATM    4  C14 UNL     1      -0.355   9.278  14.924  1.00  0.00     0.005 C 
HETATM    5  C13 UNL     1      -0.747   9.989  13.610  1.00  0.00     0.091 C 
HETATM    6  C15 UNL     1      -1.592   9.316  15.868  1.00  0.00     0.019 C 
HETATM    7  C16 UNL     1       0.020   7.772  14.711  1.00  0.00     0.002 C 
HETATM    8  C12 UNL     1      -0.725   9.005  12.459  1.00  0.00     0.133 C 
HETATM    9  C11 UNL     1       0.632   8.357  12.230  1.00  0.00     0.072 C 
HETATM   10  O2  UNL     1      -1.746   8.722  11.842  1.00  0.00    -0.297 OA
HETATM   11  C2  UNL     1       1.002   7.811  10.800  1.00  0.00    -0.009 C 
HETATM   12  C10 UNL     1       0.851   7.394  13.432  1.00  0.00     0.003 C 
HETATM   13  C1  UNL     1       0.089   8.385   9.693  1.00  0.00     0.021 C 
HETATM   14  C3  UNL     1       2.472   8.241  10.497  1.00  0.00     0.022 C 
HETATM   15  C7  UNL     1       0.954   6.293  10.737  1.00  0.00    -0.067 C 
HETATM   16  C4  UNL     1       3.036   7.655   9.205  1.00  0.00     0.084 C 
HETATM   17  C5  UNL     1       2.792   6.170   9.094  1.00  0.00     0.149 C 
HETATM   18  O1  UNL     1       3.426   5.465   8.312  1.00  0.00    -0.293 OA
HETATM   19  C6  UNL     1       1.754   5.551   9.951  1.00  0.00     0.053 C 
HETATM   20  C8  UNL     1       0.028   5.643  11.720  1.00  0.00     0.035 C 
HETATM   21  C9  UNL     1       0.603   5.894  13.108  1.00  0.00     0.010 C 
HETATM   22  C17 UNL     1       0.780   7.400  15.997  1.00  0.00     0.009 C 
HETATM   23  C18 UNL     1       1.340   8.708  16.575  1.00  0.00     0.047 C 
BRANCH   3  24
HETATM   24  O3  UNL     1       1.971   9.916  14.585  1.00  0.00    -0.381 OA
HETATM   25  H25 UNL     1       2.839   9.910  15.029  1.00  0.00     0.211 HD
ENDBRANCH   3  24
ENDBRANCH   1   3
BRANCH   1  26
HETATM   26  C21 UNL     1       0.517  11.198  17.791  1.00  0.00     0.260 C 
BRANCH  26  27
HETATM   27  O5  UNL     1       1.703  11.372  18.563  1.00  0.00    -0.314 OA
BRANCH  27  28
HETATM   28  C22 UNL     1       1.638  10.831  19.811  1.00  0.00     0.259 C 
HETATM   29  O6  UNL     1       0.609  10.473  20.365  1.00  0.00    -0.265 OA
BRANCH  28  30
HETATM   30  C23 UNL     1       3.012  10.819  20.435  1.00  0.00     0.120 C 
BRANCH  30  31
HETATM   31  C24 UNL     1       3.125   9.737  21.501  1.00  0.00     0.112 C 
BRANCH  31  32
HETATM   32  C25 UNL     1       4.135  10.111  22.568  1.00  0.00     0.218 C 
HETATM   33  O7  UNL     1       4.149   9.609  23.688  1.00  0.00    -0.274 OA
HETATM   34  N1  UNL     1       5.042  11.057  22.142  1.00  0.00    -0.360 N 
HETATM   35  H32 UNL     1       4.785  11.626  21.343  1.00  0.00     0.162 HD
BRANCH  34  36
HETATM   36  C26 UNL     1       5.999  11.650  23.068  1.00  0.00     0.142 C 
BRANCH  36  37
HETATM   37  C27 UNL     1       7.068  12.513  22.369  1.00  0.00     0.134 C 
BRANCH  37  38
HETATM   38  C28 UNL     1       8.437  11.843  22.416  1.00  0.00     0.150 C 
HETATM   39  O8  UNL     1       9.316  11.871  21.569  1.00  0.00    -0.649 OA
BRANCH  38  40
HETATM   40  O9  UNL     1       8.636  11.090  23.522  1.00  0.00    -0.776 OA
HETATM   41  H36 UNL     1       9.510  10.678  23.347  1.00  0.00     0.167 HD
ENDBRANCH  38  40
ENDBRANCH  37  38
BRANCH  37  42
HETATM   42  C29 UNL     1       7.071  13.911  22.978  1.00  0.00    -0.042 A 
HETATM   43  C30 UNL     1       5.867  14.626  23.080  1.00  0.00     0.008 A 
HETATM   44  C31 UNL     1       5.841  15.897  23.658  1.00  0.00     0.001 A 
HETATM   45  C32 UNL     1       7.015  16.469  24.145  1.00  0.00     0.000 A 
HETATM   46  C33 UNL     1       8.216  15.766  24.059  1.00  0.00     0.001 A 
HETATM   47  C34 UNL     1       8.245  14.495  23.484  1.00  0.00     0.008 A 
ENDBRANCH  37  42
ENDBRANCH  36  37
ENDBRANCH  34  36
ENDBRANCH  31  32
ENDBRANCH  30  31
ENDBRANCH  28  30
ENDBRANCH  27  28
ENDBRANCH  26  27
ENDBRANCH   1  26
TORSDOF 13
ENDMDL
