MODEL 1
REMARK minimizedAffinity -7.34795523
REMARK CNNscore 0.683130443
REMARK CNNaffinity 6.91558838
REMARK  10 active torsions:
REMARK  status: ('A' for Active; 'I' for Inactive)
REMARK    1  A    between atoms: C3_3  and  O1_4 
REMARK    2  A    between atoms: N1_14  and  O2_16 
REMARK    3  A    between atoms: O2_16  and  C13_17 
REMARK    4  A    between atoms: C13_17  and  C14_18 
REMARK       I    between atoms: C14_18  and  N2_20 
REMARK    5  A    between atoms: N2_20  and  C15_21 
REMARK    6  A    between atoms: C15_21  and  C16_22 
REMARK    7  A    between atoms: C15_21  and  C19_29 
REMARK       I    between atoms: C16_22  and  N3_24 
REMARK    8  A    between atoms: N3_24  and  C17_25 
REMARK    9  A    between atoms: C17_25  and  C18_26 
REMARK   10  A    between atoms: C18_26  and  O6_28 
ROOT
HETATM    1  C1  UNL     1      -5.612  17.515   6.362  1.00  0.00     0.015 C 
HETATM    2  C2  UNL     1      -4.544  17.515   5.808  1.00  0.00    -0.078 C 
HETATM    3  C3  UNL     1      -3.251  17.469   5.105  1.00  0.00     0.128 C 
HETATM    4  C4  UNL     1      -2.732  18.862   4.752  1.00  0.00     0.052 C 
HETATM    5  C5  UNL     1      -1.282  18.595   4.368  1.00  0.00     0.010 C 
HETATM    6  C6  UNL     1      -0.788  17.487   5.325  1.00  0.00     0.002 C 
HETATM    7  C7  UNL     1       0.187  16.508   4.633  1.00  0.00    -0.004 C 
HETATM    8  C8  UNL     1       1.153  15.844   5.643  1.00  0.00     0.010 C 
HETATM    9  C9  UNL     1       1.702  14.489   5.183  1.00  0.00     0.035 C 
HETATM   10  C10 UNL     1       1.797  14.429   3.683  1.00  0.00    -0.069 C 
HETATM   11  C11 UNL     1       2.990  14.309   3.077  1.00  0.00     0.030 C 
HETATM   12  C12 UNL     1       3.118  14.343   1.599  1.00  0.00     0.032 C 
HETATM   13  N1  UNL     1       4.266  14.004   1.085  1.00  0.00    -0.271 N 
ATOM     14  H1  UNL     1       5.086  13.748   1.634  1.00  0.00     0.194 HD
HETATM   15  C22 UNL     1       1.910  14.743   0.770  1.00  0.00     0.060 C 
HETATM   16  C23 UNL     1       0.810  15.387   1.611  1.00  0.00     0.020 C 
HETATM   17  C24 UNL     1       0.485  14.608   2.919  1.00  0.00    -0.016 C 
HETATM   18  C25 UNL     1      -0.086  13.224   2.536  1.00  0.00     0.020 C 
HETATM   19  C26 UNL     1      -0.545  15.458   3.770  1.00  0.00     0.002 C 
HETATM   20  C27 UNL     1      -1.540  14.635   4.619  1.00  0.00     0.007 C 
HETATM   21  C28 UNL     1      -2.061  15.305   5.895  1.00  0.00     0.014 C 
HETATM   22  C29 UNL     1      -2.079  16.844   5.930  1.00  0.00     0.003 C 
HETATM   23  C30 UNL     1      -2.153  17.270   7.425  1.00  0.00     0.020 C 
ENDROOT
BRANCH   3  24
HETATM   24  O1  UNL     1      -3.449  16.763   3.880  1.00  0.00    -0.377 OA
HETATM   25  H2  UNL     1      -4.260  17.115   3.478  1.00  0.00     0.211 HD
ENDBRANCH   3  24
BRANCH  13  26
HETATM   26  O2  UNL     1       4.235  14.036  -0.316  1.00  0.00    -0.271 OA
BRANCH  26  27
HETATM   27  C13 UNL     1       5.519  13.658  -0.801  1.00  0.00     0.303 C 
BRANCH  27  28
HETATM   28  C14 UNL     1       5.354  12.746  -2.007  1.00  0.00     0.244 C 
HETATM   29  O3  UNL     1       5.727  11.575  -2.017  1.00  0.00    -0.271 OA
HETATM   30  N2  UNL     1       4.828  13.357  -3.126  1.00  0.00    -0.346 N 
HETATM   31  H16 UNL     1       4.633  14.351  -3.070  1.00  0.00     0.163 HD
BRANCH  30  32
HETATM   32  C15 UNL     1       4.495  12.630  -4.360  1.00  0.00     0.180 C 
BRANCH  32  33
HETATM   33  C16 UNL     1       5.503  12.900  -5.514  1.00  0.00     0.241 C 
HETATM   34  O4  UNL     1       5.721  14.019  -5.976  1.00  0.00    -0.271 OA
HETATM   35  N3  UNL     1       6.043  11.771  -6.087  1.00  0.00    -0.349 N 
HETATM   36  H18 UNL     1       5.617  10.877  -5.856  1.00  0.00     0.163 HD
BRANCH  35  37
HETATM   37  C17 UNL     1       6.844  11.835  -7.295  1.00  0.00     0.232 C 
BRANCH  37  38
HETATM   38  C18 UNL     1       7.752  10.623  -7.381  1.00  0.00     0.158 C 
HETATM   39  O5  UNL     1       7.432   9.492  -7.716  1.00  0.00    -0.649 OA
BRANCH  38  40
HETATM   40  O6  UNL     1       9.029  10.904  -7.053  1.00  0.00    -0.775 OA
HETATM   41  H21 UNL     1       9.500  10.052  -7.161  1.00  0.00     0.167 HD
ENDBRANCH  38  40
ENDBRANCH  37  38
ENDBRANCH  35  37
ENDBRANCH  32  33
BRANCH  32  42
HETATM   42  C19 UNL     1       3.017  12.896  -4.736  1.00  0.00     0.009 C 
HETATM   43  C20 UNL     1       2.244  13.656  -3.653  1.00  0.00     0.012 C 
HETATM   44  C21 UNL     1       2.871  13.600  -6.088  1.00  0.00     0.012 C 
ENDBRANCH  32  42
ENDBRANCH  30  32
ENDBRANCH  27  28
ENDBRANCH  26  27
ENDBRANCH  13  26
TORSDOF 10
ENDMDL
