MODEL 1
REMARK minimizedAffinity -9.28297901
REMARK  7 active torsions:
REMARK  status: ('A' for Active; 'I' for Inactive)
REMARK    1  A    between atoms: C4_4  and  C5_5 
REMARK    2  A    between atoms: C5_5  and  O1_6 
REMARK    3  A    between atoms: C5_5  and  C6_7 
REMARK    4  A    between atoms: C6_7  and  C7_8 
REMARK    5  A    between atoms: C7_8  and  C8_9 
REMARK    6  A    between atoms: C7_8  and  C9_11 
REMARK    7  A    between atoms: C8_9  and  O2_10 
ROOT
HETATM    1  C9  UNL     1      -3.470  50.607 -25.287  1.00  0.00     0.001 C 
HETATM    2  C10 UNL     1      -3.836  52.083 -24.943  1.00  0.00     0.007 C 
HETATM    3  C11 UNL     1      -3.951  52.196 -23.415  1.00  0.00     0.015 C 
HETATM    4  C12 UNL     1      -3.957  50.740 -22.910  1.00  0.00    -0.013 C 
HETATM    5  C13 UNL     1      -5.434  50.254 -23.022  1.00  0.00     0.021 C 
HETATM    6  C14 UNL     1      -3.504  50.488 -21.483  1.00  0.00    -0.070 C 
HETATM    7  C15 UNL     1      -3.428  51.436 -20.536  1.00  0.00    -0.022 C 
HETATM    8  C16 UNL     1      -2.856  51.133 -19.190  1.00  0.00     0.034 C 
HETATM    9  C17 UNL     1      -3.321  49.773 -18.613  1.00  0.00     0.013 C 
HETATM   10  C18 UNL     1      -2.512  49.371 -17.332  1.00  0.00     0.018 C 
HETATM   11  C19 UNL     1      -2.813  50.374 -16.188  1.00  0.00     0.023 C 
HETATM   12  C20 UNL     1      -0.984  49.350 -17.520  1.00  0.00     0.023 C 
HETATM   13  C21 UNL     1      -2.978  47.984 -16.874  1.00  0.00     0.135 C 
HETATM   14  O3  UNL     1      -3.290  47.746 -15.703  1.00  0.00    -0.297 OA
HETATM   15  C22 UNL     1      -3.020  46.866 -17.887  1.00  0.00     0.080 C 
HETATM   16  C23 UNL     1      -2.777  47.321 -19.315  1.00  0.00     0.017 C 
HETATM   17  C24 UNL     1      -3.511  48.629 -19.707  1.00  0.00    -0.031 C 
HETATM   18  C25 UNL     1      -5.036  48.309 -19.757  1.00  0.00     0.016 C 
HETATM   19  C26 UNL     1      -3.002  49.091 -21.136  1.00  0.00     0.024 C 
HETATM   20  C27 UNL     1      -3.234  48.054 -22.267  1.00  0.00     0.010 C 
HETATM   21  C28 UNL     1      -2.988  48.532 -23.715  1.00  0.00     0.011 C 
HETATM   22  C29 UNL     1      -2.950  50.062 -23.911  1.00  0.00    -0.029 C 
HETATM   23  C30 UNL     1      -1.473  50.530 -23.717  1.00  0.00     0.016 C 
ENDROOT
BRANCH   1  24
HETATM   24  C7  UNL     1      -2.578  50.513 -26.573  1.00  0.00     0.017 C 
BRANCH  24  25
HETATM   25  C6  UNL     1      -2.216  51.957 -27.054  1.00  0.00     0.043 C 
BRANCH  25  26
HETATM   26  C5  UNL     1      -1.045  52.176 -28.030  1.00  0.00     0.141 C 
BRANCH  26  27
HETATM   27  C4  UNL     1       0.259  51.567 -27.585  1.00  0.00     0.006 C 
HETATM   28  C2  UNL     1       0.976  51.895 -26.490  1.00  0.00    -0.089 C 
HETATM   29  C1  UNL     1       0.597  52.967 -25.506  1.00  0.00     0.042 C 
HETATM   30  C3  UNL     1       2.258  51.177 -26.164  1.00  0.00     0.042 C 
ENDBRANCH  26  27
BRANCH  26  31
HETATM   31  O1  UNL     1      -0.852  53.557 -28.305  1.00  0.00    -0.392 OA
HETATM   32  H9  UNL     1      -0.591  53.971 -27.455  1.00  0.00     0.210 HD
ENDBRANCH  26  31
ENDBRANCH  25  26
ENDBRANCH  24  25
BRANCH  24  33
HETATM   33  C8  UNL     1      -3.244  49.689 -27.682  1.00  0.00     0.169 C 
BRANCH  33  34
HETATM   34  O2  UNL     1      -3.555  50.525 -28.794  1.00  0.00    -0.400 OA
HETATM   35  H15 UNL     1      -3.834  49.934 -29.518  1.00  0.00     0.209 HD
ENDBRANCH  33  34
ENDBRANCH  24  33
ENDBRANCH   1  24
TORSDOF 7
ENDMDL
