MODEL 1
REMARK minimizedAffinity -9.56395817
REMARK  11 active torsions:
REMARK  status: ('A' for Active; 'I' for Inactive)
REMARK    1  A    between atoms: C4_4  and  C5_5 
REMARK    2  A    between atoms: C15_15  and  C16_16 
REMARK    3  A    between atoms: C16_16  and  C18_18 
REMARK    4  A    between atoms: C19_19  and  C20_20 
REMARK    5  A    between atoms: C20_20  and  O1_21 
REMARK    6  A    between atoms: C20_20  and  C21_22 
REMARK    7  A    between atoms: C20_20  and  C22_24 
REMARK    8  A    between atoms: C21_22  and  O2_23 
REMARK    9  A    between atoms: C22_24  and  O3_27 
REMARK   10  A    between atoms: C26_29  and  O4_30 
REMARK   11  A    between atoms: C28_32  and  O5_33 
ROOT
HETATM    1  C5  UNL     1       1.459   6.036  10.956  1.00  0.00     0.004 C 
HETATM    2  C6  UNL     1       0.612   6.105  12.006  1.00  0.00    -0.075 C 
HETATM    3  C7  UNL     1       0.986   5.834  13.446  1.00  0.00     0.034 C 
HETATM    4  C8  UNL     1       0.421   6.860  14.435  1.00  0.00     0.005 C 
HETATM    5  C9  UNL     1      -0.308   8.020  13.765  1.00  0.00     0.010 C 
HETATM    6  C10 UNL     1      -1.400   7.582  12.746  1.00  0.00    -0.032 C 
HETATM    7  C11 UNL     1      -1.741   8.840  11.929  1.00  0.00     0.016 C 
HETATM    8  C12 UNL     1      -0.846   6.495  11.763  1.00  0.00     0.023 C 
HETATM    9  C13 UNL     1      -1.794   5.300  11.874  1.00  0.00     0.010 C 
HETATM   10  C14 UNL     1      -2.381   5.392  13.265  1.00  0.00     0.007 C 
HETATM   11  C15 UNL     1      -2.619   6.901  13.500  1.00  0.00     0.002 C 
ENDROOT
BRANCH  11  12
HETATM   12  C16 UNL     1      -4.081   7.319  13.111  1.00  0.00     0.009 C 
HETATM   13  C17 UNL     1      -4.491   8.700  13.645  1.00  0.00     0.014 C 
BRANCH  12  14
HETATM   14  C18 UNL     1      -5.163   6.356  13.588  1.00  0.00    -0.023 C 
HETATM   15  C19 UNL     1      -6.492   6.571  13.549  1.00  0.00     0.012 C 
BRANCH  15  16
HETATM   16  C20 UNL     1      -7.594   5.618  14.017  1.00  0.00     0.126 C 
BRANCH  16  17
HETATM   17  O1  UNL     1      -8.803   5.955  13.313  1.00  0.00    -0.381 OA
HETATM   18  H26 UNL     1      -9.204   5.120  13.010  1.00  0.00     0.211 HD
ENDBRANCH  16  17
BRANCH  16  19
HETATM   19  C21 UNL     1      -7.169   4.177  13.605  1.00  0.00     0.209 C 
BRANCH  19  20
HETATM   20  O2  UNL     1      -8.313   3.326  13.434  1.00  0.00    -0.397 OA
HETATM   21  H29 UNL     1      -9.091   3.906  13.305  1.00  0.00     0.209 HD
ENDBRANCH  19  20
ENDBRANCH  16  19
BRANCH  16  22
HETATM   22  C22 UNL     1      -7.835   5.752  15.571  1.00  0.00     0.087 C 
HETATM   23  C23 UNL     1      -6.571   6.227  16.314  1.00  0.00     0.049 C 
HETATM   24  C24 UNL     1      -8.960   6.747  15.901  1.00  0.00     0.049 C 
BRANCH  22  25
HETATM   25  O3  UNL     1      -8.242   4.489  16.122  1.00  0.00    -0.387 OA
HETATM   26  H36 UNL     1      -7.437   3.970  16.301  1.00  0.00     0.210 HD
ENDBRANCH  22  25
ENDBRANCH  16  22
ENDBRANCH  15  16
ENDBRANCH  12  14
ENDBRANCH  11  12
BRANCH   1  27
HETATM   27  C4  UNL     1       2.856   5.646  10.982  1.00  0.00     0.008 C 
HETATM   28  C3  UNL     1       3.924   6.432  10.731  1.00  0.00    -0.048 C 
HETATM   29  C2  UNL     1       3.877   7.847  10.388  1.00  0.00    -0.033 C 
HETATM   30  C25 UNL     1       5.337   5.879  10.879  1.00  0.00     0.071 C 
HETATM   31  C1  UNL     1       3.260   8.297   9.282  1.00  0.00     0.022 C 
HETATM   32  C28 UNL     1       4.668   8.771  11.293  1.00  0.00     0.153 C 
HETATM   33  C27 UNL     1       5.714   8.044  12.150  1.00  0.00     0.068 C 
HETATM   34  C26 UNL     1       6.374   6.907  11.378  1.00  0.00     0.125 C 
BRANCH  32  35
HETATM   35  O5  UNL     1       3.770   9.455  12.170  1.00  0.00    -0.391 OA
HETATM   36  H44 UNL     1       3.083   8.811  12.416  1.00  0.00     0.210 HD
ENDBRANCH  32  35
BRANCH  34  37
HETATM   37  O4  UNL     1       7.099   7.436  10.266  1.00  0.00    -0.395 OA
HETATM   38  H40 UNL     1       7.820   7.987  10.618  1.00  0.00     0.210 HD
ENDBRANCH  34  37
ENDBRANCH   1  27
TORSDOF 11
ENDMDL
