MODEL 1
REMARK minimizedAffinity -9.93653488
REMARK  7 active torsions:
REMARK  status: ('A' for Active; 'I' for Inactive)
REMARK    1  A    between atoms: C4_4  and  C5_5 
REMARK    2  A    between atoms: C5_5  and  C6_6 
REMARK    3  A    between atoms: C6_6  and  C7_7 
REMARK    4  A    between atoms: C7_7  and  C9_9 
REMARK    5  A    between atoms: C16_16  and  O1_17 
REMARK    6  A    between atoms: C18_19  and  O2_20 
REMARK    7  A    between atoms: C19_21  and  O3_22 
ROOT
HETATM    1  C9  UNL     1       1.579   6.614  12.569  1.00  0.00    -0.002 C 
HETATM    2  C10 UNL     1       0.940   7.816  13.324  1.00  0.00     0.006 C 
HETATM    3  C11 UNL     1      -0.573   7.559  13.389  1.00  0.00     0.011 C 
HETATM    4  C12 UNL     1      -0.730   6.054  13.108  1.00  0.00    -0.032 C 
HETATM    5  C13 UNL     1      -0.424   5.309  14.445  1.00  0.00     0.016 C 
HETATM    6  C14 UNL     1      -2.130   5.646  12.575  1.00  0.00     0.006 C 
HETATM    7  C15 UNL     1      -3.245   5.706  13.630  1.00  0.00     0.038 C 
HETATM    8  C16 UNL     1      -4.597   5.364  13.007  1.00  0.00     0.126 C 
HETATM    9  C17 UNL     1      -4.621   3.888  12.578  1.00  0.00     0.055 C 
HETATM   10  C18 UNL     1      -5.892   3.536  11.771  1.00  0.00     0.154 C 
HETATM   11  C19 UNL     1      -5.875   2.067  11.272  1.00  0.00     0.147 C 
HETATM   12  C20 UNL     1      -4.714   1.252  11.847  1.00  0.00     0.035 C 
HETATM   13  C21 UNL     1      -3.348   1.917  11.636  1.00  0.00     0.013 C 
HETATM   14  C22 UNL     1      -3.400   3.435  11.792  1.00  0.00    -0.023 A 
HETATM   15  C23 UNL     1      -2.957   4.225  10.585  1.00  0.00     0.021 A 
HETATM   16  C24 UNL     1      -2.103   4.282  11.839  1.00  0.00    -0.027 A 
HETATM   17  C25 UNL     1      -0.776   3.515  11.817  1.00  0.00     0.011 C 
HETATM   18  C26 UNL     1       0.529   4.333  11.784  1.00  0.00     0.011 C 
HETATM   19  C27 UNL     1       0.350   5.843  11.978  1.00  0.00    -0.032 C 
HETATM   20  C28 UNL     1      -0.047   6.448  10.606  1.00  0.00     0.016 C 
ENDROOT
BRANCH   1  21
HETATM   21  C7  UNL     1       2.827   7.017  11.723  1.00  0.00    -0.014 C 
HETATM   22  C8  UNL     1       4.117   7.332  12.496  1.00  0.00     0.010 C 
BRANCH  21  23
HETATM   23  C6  UNL     1       2.571   8.156  10.709  1.00  0.00     0.008 C 
BRANCH  23  24
HETATM   24  C5  UNL     1       3.513   8.139   9.500  1.00  0.00     0.028 C 
BRANCH  24  25
HETATM   25  C4  UNL     1       2.729   8.116   8.215  1.00  0.00    -0.025 C 
HETATM   26  C2  UNL     1       2.408   7.056   7.448  1.00  0.00    -0.091 C 
HETATM   27  C1  UNL     1       1.599   7.242   6.190  1.00  0.00     0.042 C 
HETATM   28  C3  UNL     1       2.789   5.627   7.724  1.00  0.00     0.042 C 
ENDBRANCH  24  25
ENDBRANCH  23  24
ENDBRANCH  21  23
ENDBRANCH   1  21
BRANCH   8  29
HETATM   29  O1  UNL     1      -5.601   5.614  13.994  1.00  0.00    -0.395 OA
HETATM   30  H28 UNL     1      -6.391   5.096  13.725  1.00  0.00     0.210 HD
ENDBRANCH   8  29
BRANCH  10  31
HETATM   31  O2  UNL     1      -7.043   3.766  12.600  1.00  0.00    -0.393 OA
HETATM   32  H31 UNL     1      -7.833   3.539  12.076  1.00  0.00     0.210 HD
ENDBRANCH  10  31
BRANCH  11  33
HETATM   33  O3  UNL     1      -5.776   2.034   9.846  1.00  0.00    -0.393 OA
HETATM   34  H33 UNL     1      -6.564   2.469   9.478  1.00  0.00     0.210 HD
ENDBRANCH  11  33
TORSDOF 7
ENDMDL
