MODEL 1
REMARK minimizedAffinity -9.26366138
REMARK  5 active torsions:
REMARK  status: ('A' for Active; 'I' for Inactive)
REMARK    1  A    between atoms: C4_4  and  C5_5 
REMARK    2  A    between atoms: C5_5  and  C6_6 
REMARK    3  A    between atoms: C6_6  and  C7_7 
REMARK    4  A    between atoms: C7_7  and  C9_9 
REMARK    5  A    between atoms: C26_29  and  O4_30 
ROOT
HETATM    1  C9  UNL     1      -0.744  50.990 -21.020  1.00  0.00    -0.001 C 
HETATM    2  C10 UNL     1      -1.310  51.841 -19.842  1.00  0.00     0.007 C 
HETATM    3  C11 UNL     1      -2.768  51.409 -19.604  1.00  0.00     0.024 C 
HETATM    4  C12 UNL     1      -2.959  50.221 -20.515  1.00  0.00     0.092 C 
HETATM    5  C13 UNL     1      -2.541  48.896 -19.831  1.00  0.00     0.272 C 
HETATM    6  O1  UNL     1      -1.731  48.742 -18.932  1.00  0.00    -0.264 OA
HETATM    7  O2  UNL     1      -3.241  47.861 -20.420  1.00  0.00    -0.305 OA
HETATM    8  C14 UNL     1      -4.113  48.406 -21.443  1.00  0.00     0.113 C 
HETATM    9  C15 UNL     1      -3.266  48.461 -22.753  1.00  0.00     0.043 C 
HETATM   10  C16 UNL     1      -1.905  49.194 -22.576  1.00  0.00     0.014 C 
HETATM   11  C17 UNL     1      -2.039  50.500 -21.748  1.00  0.00    -0.020 C 
HETATM   12  C18 UNL     1      -2.597  51.613 -22.673  1.00  0.00     0.017 C 
HETATM   13  C19 UNL     1      -4.312  49.801 -20.934  1.00  0.00     0.137 A 
HETATM   14  O3  UNL     1      -5.228  50.693 -21.542  1.00  0.00    -0.364 OA
HETATM   15  C20 UNL     1      -5.580  50.221 -20.225  1.00  0.00     0.162 A 
HETATM   16  C21 UNL     1      -6.749  49.283 -20.167  1.00  0.00     0.041 C 
HETATM   17  C22 UNL     1      -6.275  47.813 -20.221  1.00  0.00     0.009 C 
HETATM   18  C23 UNL     1      -7.349  46.705 -19.837  1.00  0.00    -0.017 C 
HETATM   19  C24 UNL     1      -6.823  45.963 -18.573  1.00  0.00     0.018 C 
HETATM   20  C25 UNL     1      -8.717  47.305 -19.434  1.00  0.00     0.018 C 
HETATM   21  C26 UNL     1      -7.576  45.621 -20.929  1.00  0.00     0.126 C 
HETATM   22  C27 UNL     1      -6.322  45.127 -21.654  1.00  0.00     0.033 C 
HETATM   23  C28 UNL     1      -5.107  46.048 -21.573  1.00  0.00     0.015 C 
HETATM   24  C29 UNL     1      -5.440  47.556 -21.532  1.00  0.00    -0.004 C 
HETATM   25  C30 UNL     1      -6.203  47.953 -22.823  1.00  0.00     0.019 C 
ENDROOT
BRANCH   1  26
HETATM   26  C7  UNL     1       0.346  51.756 -21.828  1.00  0.00    -0.014 C 
HETATM   27  C8  UNL     1       0.935  52.920 -21.021  1.00  0.00     0.010 C 
BRANCH  26  28
HETATM   28  C6  UNL     1      -0.226  52.303 -23.170  1.00  0.00     0.008 C 
BRANCH  28  29
HETATM   29  C5  UNL     1       0.845  52.582 -24.237  1.00  0.00     0.028 C 
BRANCH  29  30
HETATM   30  C4  UNL     1       0.384  52.325 -25.644  1.00  0.00    -0.025 C 
HETATM   31  C2  UNL     1       1.097  51.841 -26.680  1.00  0.00    -0.091 C 
HETATM   32  C1  UNL     1       2.548  51.449 -26.631  1.00  0.00     0.042 C 
HETATM   33  C3  UNL     1       0.457  51.671 -28.033  1.00  0.00     0.042 C 
ENDBRANCH  29  30
ENDBRANCH  28  29
ENDBRANCH  26  28
ENDBRANCH   1  26
BRANCH  21  34
HETATM   34  O4  UNL     1      -8.525  46.078 -21.893  1.00  0.00    -0.395 OA
HETATM   35  H39 UNL     1      -8.745  45.327 -22.472  1.00  0.00     0.210 HD
ENDBRANCH  21  34
TORSDOF 5
ENDMDL
