MODEL 1
REMARK minimizedAffinity -6.34449434
REMARK CNNscore 0.498543352
REMARK CNNaffinity 6.15415907
REMARK  7 active torsions:
REMARK  status: ('A' for Active; 'I' for Inactive)
REMARK    1  A    between atoms: C2_2  and  C3_3 
REMARK    2  A    between atoms: C2_2  and  C9_11 
REMARK    3  A    between atoms: C3_3  and  C4_4 
REMARK    4  A    between atoms: C5_5  and  C6_6 
REMARK    5  A    between atoms: C6_6  and  O1_9 
REMARK    6  A    between atoms: O1_9  and  O2_10 
REMARK    7  A    between atoms: C10_12  and  O3_13 
ROOT
HETATM    1  C9  UNL     1      -3.706  13.820  19.105  1.00  0.00     0.028 C 
HETATM    2  C10 UNL     1      -3.095  14.915  18.169  1.00  0.00     0.124 C 
HETATM    3  C11 UNL     1      -2.400  14.191  16.998  1.00  0.00     0.046 C 
HETATM    4  C12 UNL     1      -2.274  12.727  17.466  1.00  0.00    -0.010 C 
HETATM    5  C13 UNL     1      -1.013  12.653  18.386  1.00  0.00     0.021 C 
HETATM    6  C14 UNL     1      -2.070  11.653  16.398  1.00  0.00    -0.070 C 
HETATM    7  C15 UNL     1      -1.335  11.883  15.290  1.00  0.00    -0.022 C 
HETATM    8  C16 UNL     1      -1.009  10.848  14.249  1.00  0.00     0.034 C 
HETATM    9  C17 UNL     1      -1.824   9.559  14.441  1.00  0.00     0.013 C 
HETATM   10  C18 UNL     1      -1.565   8.424  13.400  1.00  0.00     0.018 C 
HETATM   11  C19 UNL     1      -1.768   8.961  11.966  1.00  0.00     0.023 C 
HETATM   12  C20 UNL     1      -0.178   7.777  13.479  1.00  0.00     0.023 C 
HETATM   13  C21 UNL     1      -2.613   7.320  13.630  1.00  0.00     0.135 C 
HETATM   14  O4  UNL     1      -2.809   6.424  12.806  1.00  0.00    -0.297 OA
HETATM   15  C22 UNL     1      -3.424   7.373  14.909  1.00  0.00     0.080 C 
HETATM   16  C23 UNL     1      -2.515   7.718  16.080  1.00  0.00     0.017 C 
HETATM   17  C24 UNL     1      -1.841   9.117  15.957  1.00  0.00    -0.031 C 
HETATM   18  C25 UNL     1      -0.430   9.005  16.595  1.00  0.00     0.016 C 
HETATM   19  C26 UNL     1      -2.657  10.257  16.701  1.00  0.00     0.024 C 
HETATM   20  C27 UNL     1      -2.882  10.038  18.217  1.00  0.00     0.010 C 
HETATM   21  C28 UNL     1      -3.618  11.183  18.955  1.00  0.00     0.011 C 
HETATM   22  C29 UNL     1      -3.645  12.532  18.204  1.00  0.00    -0.026 C 
HETATM   23  C30 UNL     1      -4.876  12.557  17.240  1.00  0.00     0.016 C 
ENDROOT
BRANCH   1  24
HETATM   24  C2  UNL     1      -5.086  14.241  19.719  1.00  0.00    -0.008 C 
HETATM   25  C1  UNL     1      -6.207  14.197  18.670  1.00  0.00     0.011 C 
BRANCH  24  26
HETATM   26  C3  UNL     1      -5.463  13.344  20.928  1.00  0.00     0.031 C 
BRANCH  26  27
HETATM   27  C4  UNL     1      -6.875  13.536  21.409  1.00  0.00    -0.027 C 
HETATM   28  C5  UNL     1      -7.346  13.070  22.580  1.00  0.00     0.009 C 
BRANCH  28  29
HETATM   29  C6  UNL     1      -8.758  13.233  23.121  1.00  0.00     0.106 C 
HETATM   30  C7  UNL     1      -9.566  14.068  22.119  1.00  0.00     0.053 C 
HETATM   31  C8  UNL     1      -8.747  13.957  24.475  1.00  0.00     0.053 C 
BRANCH  29  32
HETATM   32  O1  UNL     1      -9.457  11.974  23.221  1.00  0.00    -0.229 OA
BRANCH  32  33
HETATM   33  O2  UNL     1     -10.891  12.247  23.292  1.00  0.00    -0.249 OA
HETATM   34  H15 UNL     1     -11.136  11.740  22.498  1.00  0.00     0.253 HD
ENDBRANCH  32  33
ENDBRANCH  29  32
ENDBRANCH  28  29
ENDBRANCH  26  27
ENDBRANCH  24  26
ENDBRANCH   1  24
BRANCH   2  35
HETATM   35  O3  UNL     1      -2.110  15.678  18.860  1.00  0.00    -0.395 OA
HETATM   36  H18 UNL     1      -2.528  16.115  19.619  1.00  0.00     0.210 HD
ENDBRANCH   2  35
TORSDOF 7
ENDMDL
