MODEL 1
REMARK minimizedAffinity -6.53989983
REMARK CNNscore 0.608167946
REMARK CNNaffinity 6.83927917
REMARK  5 active torsions:
REMARK  status: ('A' for Active; 'I' for Inactive)
REMARK    1  A    between atoms: C2_2  and  C3_3 
REMARK    2  A    between atoms: C8_8  and  C9_9 
REMARK    3  A    between atoms: C9_9  and  C11_11 
REMARK    4  A    between atoms: C11_11  and  C12_12 
REMARK    5  A    between atoms: C12_12  and  C13_13 
ROOT
HETATM    1  C3  UNL     1     -14.074  -9.040  29.955  1.00  0.00    -0.032 C 
HETATM    2  C4  UNL     1     -12.930 -10.069  29.602  1.00  0.00     0.011 C 
HETATM    3  C5  UNL     1     -12.586 -10.235  28.106  1.00  0.00     0.011 C 
HETATM    4  C6  UNL     1     -13.847 -10.547  27.288  1.00  0.00    -0.032 C 
HETATM    5  C7  UNL     1     -14.428 -11.897  27.816  1.00  0.00     0.016 C 
HETATM    6  C8  UNL     1     -13.699 -10.621  25.741  1.00  0.00    -0.002 C 
HETATM    7  C17 UNL     1     -15.160 -10.414  25.251  1.00  0.00     0.006 C 
HETATM    8  C18 UNL     1     -15.940  -9.773  26.435  1.00  0.00     0.011 C 
HETATM    9  C19 UNL     1     -14.839  -9.319  27.424  1.00  0.00    -0.032 C 
HETATM   10  C20 UNL     1     -14.312  -7.973  26.825  1.00  0.00     0.016 C 
HETATM   11  C21 UNL     1     -15.265  -9.160  28.924  1.00  0.00     0.003 C 
HETATM   12  C22 UNL     1     -16.360  -8.127  29.192  1.00  0.00     0.006 C 
HETATM   13  C23 UNL     1     -15.948  -6.699  29.507  1.00  0.00     0.006 C 
HETATM   14  C24 UNL     1     -14.495  -6.383  29.924  1.00  0.00     0.005 C 
HETATM   15  C25 UNL     1     -13.480  -7.574  29.956  1.00  0.00    -0.000 C 
HETATM   16  C26 UNL     1     -12.328  -7.318  30.957  1.00  0.00     0.013 C 
HETATM   17  C27 UNL     1     -11.862  -5.873  30.902  1.00  0.00     0.079 C 
HETATM   18  C28 UNL     1     -12.950  -4.955  31.391  1.00  0.00     0.135 C 
HETATM   19  O1  UNL     1     -12.654  -3.918  31.988  1.00  0.00    -0.297 OA
HETATM   20  C29 UNL     1     -14.410  -5.349  31.114  1.00  0.00     0.017 C 
HETATM   21  C30 UNL     1     -15.157  -4.046  30.736  1.00  0.00     0.023 C 
HETATM   22  C31 UNL     1     -14.993  -5.872  32.437  1.00  0.00     0.023 C 
ENDROOT
BRANCH   6  23
HETATM   23  C9  UNL     1     -12.837 -11.709  25.042  1.00  0.00    -0.014 C 
HETATM   24  C10 UNL     1     -13.756 -12.830  24.519  1.00  0.00     0.010 C 
BRANCH  23  25
HETATM   25  C11 UNL     1     -11.568 -12.303  25.698  1.00  0.00     0.008 C 
BRANCH  25  26
HETATM   26  C12 UNL     1     -10.471 -12.974  24.865  1.00  0.00     0.028 C 
BRANCH  26  27
HETATM   27  C13 UNL     1      -9.346 -12.079  24.433  1.00  0.00    -0.025 C 
HETATM   28  C14 UNL     1      -8.111 -12.449  24.045  1.00  0.00    -0.091 C 
HETATM   29  C15 UNL     1      -7.609 -13.866  24.008  1.00  0.00     0.042 C 
HETATM   30  C16 UNL     1      -7.099 -11.420  23.616  1.00  0.00     0.042 C 
ENDBRANCH  26  27
ENDBRANCH  25  26
ENDBRANCH  23  25
ENDBRANCH   6  23
BRANCH   1  31
HETATM   31  C2  UNL     1     -14.576  -9.359  31.412  1.00  0.00     0.006 C 
HETATM   32  C1  UNL     1     -13.903 -10.504  32.169  1.00  0.00     0.006 C 
ENDBRANCH   1  31
TORSDOF 5
ENDMDL
