MODEL 1
REMARK minimizedAffinity -10.1111212
REMARK  5 active torsions:
REMARK  status: ('A' for Active; 'I' for Inactive)
REMARK    1  A    between atoms: N1_2  and  C2_3 
REMARK    2  A    between atoms: C4_5  and  N3_29 
REMARK    3  A    between atoms: C5_7  and  N2_12 
REMARK    4  A    between atoms: C7_9  and  O2_10 
REMARK    5  A    between atoms: C28_35  and  O4_36 
ROOT
HETATM    1  C2  UNL     1       9.327  -3.165  32.267  1.00  0.00     0.257 C 
HETATM    2  C3  UNL     1       9.636  -3.776  30.838  1.00  0.00     0.092 C 
HETATM    3  C4  UNL     1      10.192  -5.145  31.130  1.00  0.00     0.234 C 
HETATM    4  O1  UNL     1       9.292  -5.691  32.105  1.00  0.00    -0.333 OA
HETATM    5  C5  UNL     1       9.829  -5.444  33.419  1.00  0.00     0.168 C 
HETATM    6  C6  UNL     1       8.615  -5.738  34.322  1.00  0.00     0.074 C 
HETATM    7  C7  UNL     1      10.164  -3.871  33.463  1.00  0.00     0.209 C 
ENDROOT
BRANCH   1   8
HETATM    8  N1  UNL     1       9.280  -1.689  32.235  1.00  0.00     0.086 N 
HETATM    9  C1  UNL     1      10.302  -1.056  31.415  1.00  0.00     0.307 C 
HETATM   10  H4  UNL     1       8.361  -1.393  31.903  1.00  0.00     0.316 HD
ENDBRANCH   1   8
BRANCH   7  11
HETATM   11  O2  UNL     1      11.556  -3.582  33.232  1.00  0.00    -0.384 OA
HETATM   12  C8  UNL     1      12.159  -2.763  34.224  1.00  0.00     0.202 C 
ENDBRANCH   7  11
BRANCH   3  13
HETATM   13  N3  UNL     1      10.573  -6.270  30.351  1.00  0.00    -0.316 N 
HETATM   14  C24 UNL     1      11.719  -6.983  30.177  1.00  0.00     0.048 A 
HETATM   15  C19 UNL     1      11.367  -8.126  29.419  1.00  0.00     0.004 A 
HETATM   16  C23 UNL     1      13.030  -6.748  30.618  1.00  0.00     0.030 A 
HETATM   17  C18 UNL     1       9.954  -8.074  29.157  1.00  0.00     0.022 A 
HETATM   18  C20 UNL     1      12.388  -9.048  29.103  1.00  0.00     0.014 A 
HETATM   19  C17 UNL     1       8.920  -8.805  28.559  1.00  0.00     0.057 A 
HETATM   20  C25 UNL     1       9.530  -6.899  29.722  1.00  0.00     0.077 A 
HETATM   21  C16 UNL     1       7.535  -8.413  28.536  1.00  0.00     0.020 A 
HETATM   22  C27 UNL     1       9.007 -10.112  27.896  1.00  0.00     0.255 C 
HETATM   23  C15 UNL     1       7.071  -7.208  29.109  1.00  0.00     0.017 A 
HETATM   24  C28 UNL     1       6.754  -9.508  27.869  1.00  0.00     0.257 C 
HETATM   25  C14 UNL     1       5.830  -6.530  29.290  1.00  0.00     0.004 A 
HETATM   26  C26 UNL     1       8.026  -6.407  29.694  1.00  0.00     0.077 A 
HETATM   27  C9  UNL     1       6.082  -5.318  29.964  1.00  0.00     0.049 A 
HETATM   28  C13 UNL     1       4.501  -6.843  28.927  1.00  0.00     0.014 A 
HETATM   29  N2  UNL     1       7.459  -5.228  30.171  1.00  0.00    -0.308 N 
HETATM   30  C10 UNL     1       5.032  -4.438  30.286  1.00  0.00     0.030 A 
HETATM   31  C11 UNL     1       3.726  -4.782  29.924  1.00  0.00     0.002 A 
HETATM   32  C12 UNL     1       3.462  -5.966  29.248  1.00  0.00     0.001 A 
HETATM   33  N4  UNL     1       7.748 -10.426  27.426  1.00  0.00    -0.326 N 
HETATM   34  H24 UNL     1       7.554 -11.376  27.143  1.00  0.00     0.165 HD
HETATM   35  O3  UNL     1       9.985 -10.825  27.788  1.00  0.00    -0.268 OA
HETATM   36  C21 UNL     1      13.698  -8.816  29.536  1.00  0.00     0.001 A 
HETATM   37  C22 UNL     1      14.011  -7.685  30.282  1.00  0.00     0.002 A 
BRANCH  24  38
HETATM   38  O4  UNL     1       6.085  -9.064  26.722  1.00  0.00    -0.372 OA
HETATM   39  H26 UNL     1       6.664  -9.342  25.989  1.00  0.00     0.212 HD
ENDBRANCH  24  38
ENDBRANCH   3  13
TORSDOF 5
ENDMDL
