MODEL 1
REMARK minimizedAffinity -8.57705975
REMARK  8 active torsions:
REMARK  status: ('A' for Active; 'I' for Inactive)
REMARK    1  A    between atoms: O1_2  and  C2_3 
REMARK    2  A    between atoms: C5_6  and  N1_7 
REMARK    3  A    between atoms: N1_7  and  C6_8 
REMARK    4  A    between atoms: C16_25  and  O4_26 
REMARK    5  A    between atoms: O4_26  and  C17_27 
REMARK    6  A    between atoms: C17_27  and  C18_28 
REMARK    7  A    between atoms: C18_28  and  C19_29 
REMARK    8  A    between atoms: C19_29  and  N4_30 
ROOT
HETATM    1  C2  UNL     1      -1.527  50.835 -21.363  1.00  0.00     0.102 A 
HETATM    2  C3  UNL     1      -1.942  51.312 -22.607  1.00  0.00     0.057 A 
HETATM    3  C4  UNL     1      -1.145  52.226 -23.344  1.00  0.00     0.038 A 
HETATM    4  C5  UNL     1      -1.468  52.759 -24.609  1.00  0.00     0.119 A 
HETATM    5  N2  UNL     1      -0.680  53.644 -25.245  1.00  0.00    -0.338 N 
ATOM      6  H2  UNL     1      -0.938  54.042 -26.147  1.00  0.00     0.168 HD
HETATM    7  C13 UNL     1       0.457  53.973 -24.632  1.00  0.00     0.182 A 
HETATM    8  N3  UNL     1       0.874  53.524 -23.442  1.00  0.00    -0.351 N 
ATOM      9  H3  UNL     1       1.761  53.826 -23.037  1.00  0.00     0.166 HD
HETATM   10  C14 UNL     1       0.074  52.661 -22.810  1.00  0.00     0.050 A 
HETATM   11  C15 UNL     1       0.473  52.182 -21.569  1.00  0.00     0.070 A 
HETATM   12  C16 UNL     1      -0.306  51.281 -20.835  1.00  0.00     0.104 A 
ENDROOT
BRANCH   4  13
HETATM   13  N1  UNL     1      -2.669  52.417 -25.265  1.00  0.00    -0.338 N 
HETATM   14  H5  UNL     1      -3.440  52.962 -24.887  1.00  0.00     0.167 HD
BRANCH  13  15
HETATM   15  C6  UNL     1      -3.098  51.098 -25.564  1.00  0.00     0.092 A 
HETATM   16  C7  UNL     1      -2.360  50.292 -26.461  1.00  0.00     0.063 A 
HETATM   17 CL1  UNL     1      -1.001  50.949 -27.309  1.00  0.00    -0.082 Cl
HETATM   18  C8  UNL     1      -2.715  48.955 -26.724  1.00  0.00     0.029 A 
HETATM   19  C9  UNL     1      -3.811  48.379 -26.084  1.00  0.00     0.041 A 
HETATM   20  C10 UNL     1      -4.514  49.163 -25.195  1.00  0.00     0.107 A 
HETATM   21  C11 UNL     1      -4.171  50.474 -24.934  1.00  0.00     0.133 A 
HETATM   22  O3  UNL     1      -5.599  48.750 -24.483  1.00  0.00    -0.323 OA
HETATM   23  O2  UNL     1      -5.015  51.035 -24.020  1.00  0.00    -0.321 OA
HETATM   24  C12 UNL     1      -5.892  49.936 -23.719  1.00  0.00     0.352 A 
ENDBRANCH  13  15
ENDBRANCH   4  13
BRANCH   1  25
HETATM   25  O1  UNL     1      -2.239  49.956 -20.591  1.00  0.00    -0.353 OA
HETATM   26  C1  UNL     1      -3.658  50.042 -20.626  1.00  0.00     0.210 C 
ENDBRANCH   1  25
BRANCH  12  27
HETATM   27  O4  UNL     1       0.043  50.772 -19.610  1.00  0.00    -0.348 OA
BRANCH  27  28
HETATM   28  C17 UNL     1      -0.553  51.349 -18.451  1.00  0.00     0.177 C 
BRANCH  28  29
HETATM   29  C18 UNL     1      -0.469  50.355 -17.293  1.00  0.00     0.057 C 
BRANCH  29  30
HETATM   30  C19 UNL     1       0.006  51.029 -15.998  1.00  0.00     0.274 C 
BRANCH  30  31
HETATM   31  N4  UNL     1       1.453  51.302 -16.007  1.00  0.00     0.088 N 
HETATM   32  C20 UNL     1       2.081  50.770 -14.782  1.00  0.00     0.272 C 
HETATM   33  C21 UNL     1       3.421  51.429 -14.425  1.00  0.00     0.030 C 
HETATM   34  C22 UNL     1       4.150  51.918 -15.667  1.00  0.00     0.003 C 
HETATM   35  C23 UNL     1       3.275  52.883 -16.469  1.00  0.00     0.030 C 
HETATM   36  C24 UNL     1       1.776  52.717 -16.192  1.00  0.00     0.272 C 
ENDBRANCH  30  31
ENDBRANCH  29  30
ENDBRANCH  28  29
ENDBRANCH  27  28
ENDBRANCH  12  27
TORSDOF 8
ENDMDL
