MODEL 1
REMARK minimizedAffinity -8.54148388
REMARK CNNscore 0.133763373
REMARK CNNaffinity 4.59315729
REMARK  7 active torsions:
REMARK  status: ('A' for Active; 'I' for Inactive)
REMARK    1  A    between atoms: C6_7  and  O2_8 
REMARK    2  A    between atoms: C11_15  and  C13_17 
REMARK    3  A    between atoms: C26_34  and  C27_35 
REMARK    4  A    between atoms: C27_35  and  C28_36 
REMARK    5  A    between atoms: C32_40  and  C33_41 
REMARK    6  A    between atoms: C33_41  and  N2_42 
REMARK    7  A    between atoms: C33_41  and  N3_43 
ROOT
HETATM    1  C1  UNL     1       7.216  19.441  27.105  1.00  0.00     0.077 C 
HETATM    2  C2  UNL     1       7.873  18.696  25.985  1.00  0.00     0.053 A 
HETATM    3  C3  UNL     1       9.101  18.999  25.542  1.00  0.00     0.088 A 
HETATM    4  C4  UNL     1       9.680  18.216  24.440  1.00  0.00     0.190 A 
HETATM    5  O1  UNL     1      10.802  18.452  24.008  1.00  0.00    -0.287 OA
HETATM    6  C5  UNL     1       8.856  17.134  23.883  1.00  0.00     0.082 A 
HETATM    7  C6  UNL     1       9.309  16.326  22.827  1.00  0.00     0.092 A 
HETATM    8  C7  UNL     1       8.499  15.302  22.298  1.00  0.00     0.016 A 
HETATM    9  C8  UNL     1       7.275  15.053  22.942  1.00  0.00     0.082 A 
HETATM   10  C9  UNL     1       6.814  15.873  23.977  1.00  0.00     0.075 A 
HETATM   11  C10 UNL     1       7.603  16.918  24.441  1.00  0.00     0.095 A 
HETATM   12  O3  UNL     1       7.096  17.672  25.470  1.00  0.00    -0.314 OA
HETATM   13  O4  UNL     1       6.449  14.001  22.649  1.00  0.00    -0.337 OA
HETATM   14  C11 UNL     1       7.076  12.870  22.005  1.00  0.00     0.095 C 
HETATM   15  C12 UNL     1       7.969  12.140  23.034  1.00  0.00     0.050 C 
HETATM   16  C18 UNL     1       7.854  13.398  20.771  1.00  0.00     0.175 C 
HETATM   17  O5  UNL     1       8.271  12.368  19.848  1.00  0.00    -0.310 OA
HETATM   18  C19 UNL     1       9.454  11.731  20.020  1.00  0.00     0.297 C 
HETATM   19  O6  UNL     1      10.057  11.575  21.067  1.00  0.00    -0.262 OA
HETATM   20  C20 UNL     1      10.034  11.399  18.690  1.00  0.00     0.175 A 
HETATM   21  C21 UNL     1      10.973  12.395  18.027  1.00  0.00     0.051 C 
HETATM   22  C22 UNL     1      11.025  13.768  18.720  1.00  0.00     0.004 C 
HETATM   23  C23 UNL     1       9.725  14.576  18.574  1.00  0.00     0.001 C 
HETATM   24  C24 UNL     1       9.288  15.315  19.853  1.00  0.00     0.012 C 
HETATM   25  C25 UNL     1       8.949  14.449  21.112  1.00  0.00     0.057 C 
HETATM   26  O7  UNL     1      10.516  10.044  18.582  1.00  0.00    -0.358 OA
HETATM   27  C26 UNL     1       9.301  10.310  17.879  1.00  0.00     0.172 A 
ENDROOT
BRANCH  27  28
HETATM   28  C27 UNL     1       9.330  10.227  16.382  1.00  0.00     0.074 C 
BRANCH  28  29
HETATM   29  C28 UNL     1       7.968  10.199  15.734  1.00  0.00    -0.055 A 
HETATM   30  C29 UNL     1       7.280  11.390  15.468  1.00  0.00     0.007 A 
HETATM   31  C30 UNL     1       6.023  11.361  14.868  1.00  0.00     0.001 A 
HETATM   32  C31 UNL     1       5.436  10.141  14.532  1.00  0.00     0.011 A 
HETATM   33  C32 UNL     1       6.095   8.929  14.795  1.00  0.00     0.004 A 
HETATM   34  C34 UNL     1       7.371   8.979  15.386  1.00  0.00     0.018 A 
BRANCH  33  35
HETATM   35  C33 UNL     1       5.445   7.623  14.398  1.00  0.00     0.479 C 
BRANCH  35  36
HETATM   36  N2  UNL     1       6.414   6.618  14.067  1.00  0.00     0.116 N 
HETATM   37  H37 UNL     1       7.111   7.032  13.454  1.00  0.00     0.316 HD
HETATM   38  H38 UNL     1       6.902   6.403  14.934  1.00  0.00     0.316 HD
ENDBRANCH  35  36
BRANCH  35  39
HETATM   39  N3  UNL     1       4.716   6.999  15.468  1.00  0.00     0.116 N 
HETATM   40  H39 UNL     1       3.887   7.558  15.657  1.00  0.00     0.316 HD
HETATM   41  H40 UNL     1       4.388   6.107  15.107  1.00  0.00     0.316 HD
ENDBRANCH  35  39
ENDBRANCH  33  35
ENDBRANCH  28  29
ENDBRANCH  27  28
BRANCH  14  42
HETATM   42  C13 UNL     1       5.908  11.899  21.574  1.00  0.00     0.026 C 
HETATM   43  C14 UNL     1       4.902  12.550  20.594  1.00  0.00     0.037 C 
HETATM   44  C15 UNL     1       3.589  11.775  20.541  1.00  0.00     0.270 C 
HETATM   45  N1  UNL     1       2.883  11.772  21.820  1.00  0.00     0.083 N 
HETATM   46  C16 UNL     1       3.762  11.913  22.979  1.00  0.00     0.270 C 
HETATM   47  H15 UNL     1       2.332  10.918  21.898  1.00  0.00     0.315 HD
HETATM   48  C17 UNL     1       5.136  11.279  22.769  1.00  0.00     0.037 C 
ENDBRANCH  14  42
BRANCH   7  49
HETATM   49  O2  UNL     1      10.570  16.487  22.309  1.00  0.00    -0.359 OA
HETATM   50  H5  UNL     1      11.012  17.233  22.775  1.00  0.00     0.217 HD
ENDBRANCH   7  49
TORSDOF 7
ENDMDL
