MODEL 1
REMARK minimizedAffinity -7.79918861
REMARK CNNscore 0.584070504
REMARK CNNaffinity 6.77443647
REMARK  4 active torsions:
REMARK  status: ('A' for Active; 'I' for Inactive)
REMARK    1  A    between atoms: C14_16  and  C15_17 
REMARK    2  A    between atoms: C15_17  and  C17_19 
REMARK    3  A    between atoms: C17_19  and  C18_20 
REMARK    4  A    between atoms: C18_20  and  C19_22 
ROOT
HETATM    1  C1  UNL     1      -6.150   6.205  16.012  1.00  0.00     0.017 C 
HETATM    2  C2  UNL     1      -5.435   6.902  15.105  1.00  0.00    -0.060 C 
HETATM    3  C3  UNL     1      -5.560   6.576  13.634  1.00  0.00     0.212 C 
HETATM    4  O1  UNL     1      -4.341   6.598  12.869  1.00  0.00    -0.317 OA
HETATM    5  C4  UNL     1      -3.294   5.774  13.107  1.00  0.00     0.259 C 
HETATM    6  O2  UNL     1      -2.525   5.451  12.205  1.00  0.00    -0.265 OA
HETATM    7  C5  UNL     1      -3.052   5.351  14.529  1.00  0.00     0.112 C 
HETATM    8  C6  UNL     1      -2.446   6.470  15.382  1.00  0.00     0.020 C 
HETATM    9  C7  UNL     1      -3.025   7.874  15.169  1.00  0.00    -0.024 A 
HETATM   10  C8  UNL     1      -2.464   8.671  14.011  1.00  0.00     0.022 A 
HETATM   11  C9  UNL     1      -2.137   9.129  15.418  1.00  0.00    -0.027 A 
HETATM   12  C10 UNL     1      -0.614   9.042  15.685  1.00  0.00     0.011 C 
HETATM   13  C11 UNL     1      -0.098   9.666  16.990  1.00  0.00     0.011 C 
HETATM   14  C12 UNL     1      -0.694  11.059  17.225  1.00  0.00    -0.032 C 
HETATM   15  C13 UNL     1      -0.202  12.000  16.092  1.00  0.00     0.016 C 
HETATM   16  C14 UNL     1      -0.410  11.716  18.612  1.00  0.00    -0.002 C 
HETATM   17  C23 UNL     1      -1.634  12.653  18.827  1.00  0.00     0.006 C 
HETATM   18  C24 UNL     1      -2.701  12.257  17.790  1.00  0.00     0.011 C 
HETATM   19  C25 UNL     1      -2.263  10.875  17.277  1.00  0.00    -0.032 C 
HETATM   20  C26 UNL     1      -2.741   9.818  18.336  1.00  0.00     0.016 C 
HETATM   21  C27 UNL     1      -2.811  10.459  15.873  1.00  0.00     0.004 C 
HETATM   22  C28 UNL     1      -4.359  10.520  15.819  1.00  0.00     0.007 C 
HETATM   23  C29 UNL     1      -5.085   9.371  15.136  1.00  0.00     0.010 C 
HETATM   24  C30 UNL     1      -4.505   8.017  15.559  1.00  0.00     0.025 C 
ENDROOT
BRANCH  16  25
HETATM   25  C15 UNL     1       0.950  12.379  18.986  1.00  0.00    -0.007 C 
HETATM   26  C16 UNL     1       2.200  11.912  18.225  1.00  0.00     0.011 C 
BRANCH  25  27
HETATM   27  C17 UNL     1       1.211  12.333  20.504  1.00  0.00     0.087 C 
BRANCH  27  28
HETATM   28  C18 UNL     1       2.041  11.124  20.910  1.00  0.00     0.149 C 
HETATM   29  O3  UNL     1       1.612   9.976  20.831  1.00  0.00    -0.293 OA
BRANCH  28  30
HETATM   30  C19 UNL     1       3.432  11.404  21.374  1.00  0.00     0.052 C 
HETATM   31  C20 UNL     1       3.920  11.071  22.584  1.00  0.00    -0.084 C 
HETATM   32  C21 UNL     1       3.138  10.399  23.684  1.00  0.00     0.043 C 
HETATM   33  C22 UNL     1       5.351  11.381  22.941  1.00  0.00     0.043 C 
ENDBRANCH  28  30
ENDBRANCH  27  28
ENDBRANCH  25  27
ENDBRANCH  16  25
TORSDOF 4
ENDMDL
