MODEL 1
REMARK minimizedAffinity -8.48330879
REMARK  13 active torsions:
REMARK  status: ('A' for Active; 'I' for Inactive)
REMARK    1  A    between atoms: C4_4  and  C5_5 
REMARK    2  A    between atoms: C5_5  and  C6_6 
REMARK    3  A    between atoms: C6_6  and  C7_7 
REMARK    4  A    between atoms: C9_9  and  C10_10 
REMARK    5  A    between atoms: C11_11  and  C12_12 
REMARK    6  A    between atoms: C14_14  and  C15_15 
REMARK    7  A    between atoms: C18_18  and  O1_19 
REMARK    8  A    between atoms: C19_21  and  C20_22 
REMARK    9  A    between atoms: C20_22  and  C21_23 
REMARK   10  A    between atoms: C21_23  and  C22_24 
REMARK   11  A    between atoms: C22_24  and  O3_25 
REMARK   12  A    between atoms: C24_27  and  C26_29 
REMARK   13  A    between atoms: C29_33  and  O5_35 
ROOT
HETATM    1  C15 UNL     1      -2.912  48.864 -24.360  1.00  0.00     0.149 C 
HETATM    2  C16 UNL     1      -2.035  49.827 -25.176  1.00  0.00     0.054 C 
HETATM    3  C17 UNL     1      -1.882  51.112 -24.312  1.00  0.00     0.050 C 
HETATM    4  C18 UNL     1      -2.268  50.545 -22.938  1.00  0.00     0.270 C 
HETATM    5  O2  UNL     1      -3.294  49.588 -23.189  1.00  0.00    -0.351 OA
HETATM    6  C19 UNL     1      -0.387  51.625 -24.399  1.00  0.00     0.032 C 
HETATM    7  C23 UNL     1      -0.114  52.130 -25.831  1.00  0.00    -0.066 C 
HETATM    8  C24 UNL     1       0.850  51.663 -26.665  1.00  0.00    -0.021 C 
HETATM    9  C25 UNL     1       1.018  52.134 -28.087  1.00  0.00     0.052 C 
HETATM   10  C27 UNL     1      -1.058  53.249 -26.236  1.00  0.00     0.038 C 
HETATM   11  C28 UNL     1      -2.515  52.813 -26.155  1.00  0.00     0.042 C 
HETATM   12  C29 UNL     1      -2.905  52.229 -24.778  1.00  0.00     0.067 C 
HETATM   13  C30 UNL     1      -4.383  51.808 -24.852  1.00  0.00     0.047 C 
ENDROOT
BRANCH   4  14
HETATM   14  O1  UNL     1      -1.211  49.818 -22.332  1.00  0.00    -0.370 OA
HETATM   15  H26 UNL     1      -1.577  49.542 -21.474  1.00  0.00     0.212 HD
ENDBRANCH   4  14
BRANCH   6  16
HETATM   16  C20 UNL     1       0.099  52.723 -23.409  1.00  0.00     0.012 C 
BRANCH  16  17
HETATM   17  C21 UNL     1       0.985  52.292 -22.234  1.00  0.00     0.027 C 
BRANCH  17  18
HETATM   18  C22 UNL     1       1.048  53.283 -21.074  1.00  0.00     0.164 C 
BRANCH  18  19
HETATM   19  O3  UNL     1       1.793  54.433 -21.452  1.00  0.00    -0.401 OA
HETATM   20  H34 UNL     1       1.747  55.058 -20.707  1.00  0.00     0.209 HD
ENDBRANCH  18  19
ENDBRANCH  17  18
ENDBRANCH  16  17
ENDBRANCH   6  16
BRANCH  12  21
HETATM   21  O5  UNL     1      -2.868  53.299 -23.820  1.00  0.00    -0.389 OA
HETATM   22  H46 UNL     1      -3.487  53.994 -24.109  1.00  0.00     0.210 HD
ENDBRANCH  12  21
BRANCH   1  23
HETATM   23  C14 UNL     1      -4.090  48.327 -25.132  1.00  0.00     0.011 C 
HETATM   24  C12 UNL     1      -4.385  48.403 -26.449  1.00  0.00    -0.063 C 
HETATM   25  C13 UNL     1      -3.573  49.187 -27.448  1.00  0.00     0.048 C 
BRANCH  24  26
HETATM   26  C11 UNL     1      -5.591  47.722 -26.931  1.00  0.00     0.006 C 
HETATM   27  C10 UNL     1      -6.039  47.691 -28.198  1.00  0.00     0.001 C 
BRANCH  27  28
HETATM   28  C9  UNL     1      -7.250  46.995 -28.581  1.00  0.00     0.002 C 
HETATM   29  C7  UNL     1      -8.516  47.320 -28.245  1.00  0.00    -0.084 C 
HETATM   30  C8  UNL     1      -8.920  48.474 -27.363  1.00  0.00     0.043 C 
BRANCH  29  31
HETATM   31  C6  UNL     1      -9.671  46.460 -28.734  1.00  0.00     0.037 C 
BRANCH  31  32
HETATM   32  C5  UNL     1     -10.502  47.140 -29.827  1.00  0.00     0.031 C 
BRANCH  32  33
HETATM   33  C4  UNL     1      -9.794  47.105 -31.156  1.00  0.00    -0.024 C 
HETATM   34  C2  UNL     1      -9.009  48.059 -31.693  1.00  0.00    -0.091 C 
HETATM   35  C1  UNL     1      -8.719  49.395 -31.065  1.00  0.00     0.042 C 
HETATM   36  C3  UNL     1      -8.351  47.849 -33.032  1.00  0.00     0.042 C 
ENDBRANCH  32  33
ENDBRANCH  31  32
ENDBRANCH  29  31
ENDBRANCH  27  28
ENDBRANCH  24  26
ENDBRANCH   1  23
BRANCH   8  37
HETATM   37  C26 UNL     1       1.849  50.638 -26.228  1.00  0.00     0.265 C 
HETATM   38  O4  UNL     1       3.058  50.845 -26.220  1.00  0.00    -0.302 OA
ENDBRANCH   8  37
TORSDOF 13
ENDMDL
