MODEL 1
REMARK minimizedAffinity -9.31597233
REMARK CNNscore 0.633528888
REMARK CNNaffinity 7.39850473
REMARK  7 active torsions:
REMARK  status: ('A' for Active; 'I' for Inactive)
REMARK    1  A    between atoms: C2_2  and  C30_32 
REMARK    2  A    between atoms: C3_3  and  C4_4 
REMARK    3  A    between atoms: C4_4  and  O1_5 
REMARK    4  A    between atoms: C4_4  and  C5_6 
REMARK    5  A    between atoms: C5_6  and  C6_7 
REMARK    6  A    between atoms: C6_7  and  C8_9 
REMARK    7  A    between atoms: C30_32  and  O4_34 
ROOT
HETATM    1  C8  UNL     1       0.082  51.345 -18.511  1.00  0.00    -0.002 C 
HETATM    2  C9  UNL     1      -1.312  50.680 -18.297  1.00  0.00     0.007 C 
HETATM    3  C10 UNL     1      -1.995  50.577 -19.673  1.00  0.00     0.015 C 
HETATM    4  C11 UNL     1      -0.875  50.870 -20.689  1.00  0.00    -0.013 C 
HETATM    5  C12 UNL     1      -0.118  49.521 -20.897  1.00  0.00     0.021 C 
HETATM    6  C13 UNL     1      -1.272  51.350 -22.078  1.00  0.00    -0.070 C 
HETATM    7  C14 UNL     1      -2.483  51.135 -22.624  1.00  0.00    -0.022 C 
HETATM    8  C15 UNL     1      -2.791  51.542 -24.034  1.00  0.00     0.034 C 
HETATM    9  C16 UNL     1      -1.557  51.260 -24.903  1.00  0.00     0.013 C 
HETATM   10  C17 UNL     1      -1.815  51.288 -26.442  1.00  0.00     0.018 C 
HETATM   11  C18 UNL     1      -2.457  49.957 -26.892  1.00  0.00     0.023 C 
HETATM   12  C19 UNL     1      -2.750  52.426 -26.890  1.00  0.00     0.023 C 
HETATM   13  C20 UNL     1      -0.475  51.393 -27.183  1.00  0.00     0.135 C 
HETATM   14  O2  UNL     1      -0.402  51.807 -28.341  1.00  0.00    -0.297 OA
HETATM   15  C21 UNL     1       0.760  50.866 -26.483  1.00  0.00     0.080 C 
HETATM   16  C22 UNL     1       0.924  51.333 -25.032  1.00  0.00     0.017 C 
HETATM   17  C23 UNL     1      -0.299  52.074 -24.429  1.00  0.00    -0.031 C 
HETATM   18  C24 UNL     1      -0.281  53.536 -24.954  1.00  0.00     0.016 C 
HETATM   19  C25 UNL     1      -0.246  52.196 -22.836  1.00  0.00     0.024 C 
HETATM   20  C26 UNL     1       1.175  52.148 -22.225  1.00  0.00     0.010 C 
HETATM   21  C27 UNL     1       1.257  52.263 -20.686  1.00  0.00     0.011 C 
HETATM   22  C28 UNL     1      -0.064  51.985 -19.934  1.00  0.00    -0.029 C 
HETATM   23  C29 UNL     1      -0.847  53.329 -19.791  1.00  0.00     0.016 C 
ENDROOT
BRANCH   1  24
HETATM   24  C6  UNL     1       0.504  52.228 -17.295  1.00  0.00    -0.011 C 
HETATM   25  C7  UNL     1       1.944  52.733 -17.428  1.00  0.00     0.010 C 
BRANCH  24  26
HETATM   26  C5  UNL     1       0.341  51.428 -15.968  1.00  0.00     0.040 C 
BRANCH  26  27
HETATM   27  C4  UNL     1       1.019  52.058 -14.737  1.00  0.00     0.142 C 
BRANCH  27  28
HETATM   28  C3  UNL     1       1.947  51.080 -14.074  1.00  0.00     0.018 C 
HETATM   29  C2  UNL     1       3.282  50.960 -14.234  1.00  0.00     0.010 C 
HETATM   30  C1  UNL     1       4.152  51.799 -15.119  1.00  0.00     0.055 C 
BRANCH  29  31
HETATM   31  C30 UNL     1       3.940  49.888 -13.442  1.00  0.00     0.171 C 
HETATM   32  O3  UNL     1       5.121  49.589 -13.461  1.00  0.00    -0.646 OA
BRANCH  31  33
HETATM   33  O4  UNL     1       3.078  49.239 -12.644  1.00  0.00    -0.773 OA
HETATM   34  H46 UNL     1       3.638  48.574 -12.194  1.00  0.00     0.167 HD
ENDBRANCH  31  33
ENDBRANCH  29  31
ENDBRANCH  27  28
BRANCH  27  35
HETATM   35  O1  UNL     1       0.037  52.434 -13.779  1.00  0.00    -0.392 OA
HETATM   36  H6  UNL     1      -0.434  51.630 -13.501  1.00  0.00     0.210 HD
ENDBRANCH  27  35
ENDBRANCH  26  27
ENDBRANCH  24  26
ENDBRANCH   1  24
TORSDOF 7
ENDMDL
