MODEL 1
REMARK minimizedAffinity -7.33621454
REMARK CNNscore 0.559822202
REMARK CNNaffinity 6.45012331
REMARK  14 active torsions:
REMARK  status: ('A' for Active; 'I' for Inactive)
REMARK    1  A    between atoms: C2_2  and  O2_4 
REMARK    2  A    between atoms: O2_4  and  C3_5 
REMARK    3  A    between atoms: C3_5  and  C4_6 
REMARK    4  A    between atoms: C4_6  and  C5_8 
REMARK    5  A    between atoms: C5_8  and  O4_9 
REMARK    6  A    between atoms: O4_9  and  C6_10 
REMARK    7  A    between atoms: C6_10  and  C7_12 
REMARK    8  A    between atoms: C7_12  and  C8_13 
REMARK    9  A    between atoms: C8_13  and  C9_14 
REMARK       I    between atoms: C9_14  and  N1_16 
REMARK   10  A    between atoms: N1_16  and  C10_17 
REMARK   11  A    between atoms: C10_17  and  C11_18 
REMARK   12  A    between atoms: C10_17  and  C18_25 
REMARK   13  A    between atoms: C11_18  and  C12_19 
REMARK   14  A    between atoms: C18_25  and  O8_27 
ROOT
HETATM    1  C3  UNL     1      -8.984  46.198 -25.342  1.00  0.00     0.140 C 
HETATM    2  C19 UNL     1      -8.486  46.180 -26.844  1.00  0.00     0.048 C 
HETATM    3  C20 UNL     1      -7.211  47.055 -26.922  1.00  0.00     0.009 C 
HETATM    4  C21 UNL     1      -6.888  47.289 -25.460  1.00  0.00     0.002 C 
HETATM    5  C22 UNL     1      -5.892  48.332 -24.956  1.00  0.00    -0.004 C 
HETATM    6  C23 UNL     1      -4.675  48.612 -25.845  1.00  0.00     0.010 C 
HETATM    7  C24 UNL     1      -3.328  48.456 -25.140  1.00  0.00     0.035 C 
HETATM    8  C25 UNL     1      -3.262  48.971 -23.717  1.00  0.00    -0.068 C 
HETATM    9  C26 UNL     1      -2.070  49.343 -23.217  1.00  0.00     0.053 C 
HETATM   10  C27 UNL     1      -1.893  49.651 -21.779  1.00  0.00     0.149 C 
HETATM   11  O9  UNL     1      -0.846  50.175 -21.404  1.00  0.00    -0.293 OA
HETATM   12  C28 UNL     1      -3.001  49.306 -20.813  1.00  0.00     0.084 C 
HETATM   13  C29 UNL     1      -4.085  48.424 -21.437  1.00  0.00     0.022 C 
HETATM   14  C30 UNL     1      -4.524  48.898 -22.848  1.00  0.00    -0.016 C 
HETATM   15  C31 UNL     1      -5.170  50.301 -22.745  1.00  0.00     0.020 C 
HETATM   16  C32 UNL     1      -5.506  47.879 -23.514  1.00  0.00     0.002 C 
HETATM   17  C33 UNL     1      -6.751  47.437 -22.690  1.00  0.00     0.007 C 
HETATM   18  C34 UNL     1      -8.126  47.757 -23.298  1.00  0.00     0.013 C 
HETATM   19  C35 UNL     1      -8.298  47.509 -24.819  1.00  0.00    -0.001 C 
HETATM   20  C36 UNL     1      -9.000  48.777 -25.407  1.00  0.00     0.019 C 
ENDROOT
BRANCH   1  21
HETATM   21  O2  UNL     1      -8.358  45.016 -24.751  1.00  0.00    -0.301 OA
BRANCH  21  22
HETATM   22  C2  UNL     1      -8.418  43.822 -25.393  1.00  0.00     0.256 C 
HETATM   23  C1  UNL     1      -9.353  42.896 -24.679  1.00  0.00     0.126 C 
HETATM   24  O1  UNL     1      -7.834  43.548 -26.430  1.00  0.00    -0.266 OA
ENDBRANCH  21  22
ENDBRANCH   1  21
BRANCH   1  25
HETATM   25  C4  UNL     1     -10.521  45.987 -25.386  1.00  0.00     0.186 C 
HETATM   26  O3  UNL     1     -11.059  45.673 -26.459  1.00  0.00    -0.292 OA
BRANCH  25  27
HETATM   27  C5  UNL     1     -11.339  46.081 -24.104  1.00  0.00     0.260 C 
BRANCH  27  28
HETATM   28  O4  UNL     1     -12.461  46.959 -24.256  1.00  0.00    -0.314 OA
BRANCH  28  29
HETATM   29  C6  UNL     1     -13.623  46.494 -23.721  1.00  0.00     0.259 C 
HETATM   30  O5  UNL     1     -13.842  46.383 -22.523  1.00  0.00    -0.265 OA
BRANCH  29  31
HETATM   31  C7  UNL     1     -14.632  46.193 -24.803  1.00  0.00     0.120 C 
BRANCH  31  32
HETATM   32  C8  UNL     1     -14.973  44.710 -24.896  1.00  0.00     0.112 C 
BRANCH  32  33
HETATM   33  C9  UNL     1     -16.461  44.480 -25.059  1.00  0.00     0.218 C 
HETATM   34  O6  UNL     1     -16.941  43.741 -25.911  1.00  0.00    -0.274 OA
HETATM   35  N1  UNL     1     -17.222  45.150 -24.139  1.00  0.00    -0.346 N 
HETATM   36  H10 UNL     1     -16.798  45.804 -23.488  1.00  0.00     0.163 HD
BRANCH  35  37
HETATM   37  C10 UNL     1     -18.686  45.065 -24.117  1.00  0.00     0.186 C 
BRANCH  37  38
HETATM   38  C11 UNL     1     -19.272  45.307 -22.714  1.00  0.00     0.074 C 
BRANCH  38  39
HETATM   39  C12 UNL     1     -18.232  45.571 -21.644  1.00  0.00    -0.056 A 
HETATM   40  C13 UNL     1     -18.313  46.720 -20.847  1.00  0.00     0.007 A 
HETATM   41  C14 UNL     1     -17.373  46.952 -19.840  1.00  0.00     0.001 A 
HETATM   42  C15 UNL     1     -16.343  46.037 -19.623  1.00  0.00     0.000 A 
HETATM   43  C16 UNL     1     -16.249  44.894 -20.413  1.00  0.00     0.001 A 
HETATM   44  C17 UNL     1     -17.185  44.663 -21.424  1.00  0.00     0.007 A 
ENDBRANCH  38  39
ENDBRANCH  37  38
BRANCH  37  45
HETATM   45  C18 UNL     1     -19.308  46.019 -25.137  1.00  0.00     0.163 C 
HETATM   46  O7  UNL     1     -19.753  47.133 -24.907  1.00  0.00    -0.648 OA
BRANCH  45  47
HETATM   47  O8  UNL     1     -19.332  45.530 -26.400  1.00  0.00    -0.775 OA
HETATM   48  H19 UNL     1     -19.734  46.255 -26.922  1.00  0.00     0.167 HD
ENDBRANCH  45  47
ENDBRANCH  37  45
ENDBRANCH  35  37
ENDBRANCH  32  33
ENDBRANCH  31  32
ENDBRANCH  29  31
ENDBRANCH  28  29
ENDBRANCH  27  28
ENDBRANCH  25  27
ENDBRANCH   1  25
TORSDOF 14
ENDMDL
