MODEL 1
REMARK minimizedAffinity -6.9252882
REMARK CNNscore 0.530907452
REMARK CNNaffinity 5.27221823
REMARK  11 active torsions:
REMARK  status: ('A' for Active; 'I' for Inactive)
REMARK    1  A    between atoms: C2_2  and  O1_3 
REMARK    2  A    between atoms: C2_2  and  C3_4 
REMARK    3  A    between atoms: C4_5  and  C5_6 
REMARK    4  A    between atoms: C5_6  and  O2_7 
REMARK    5  A    between atoms: C9_11  and  O3_12 
REMARK    6  A    between atoms: O3_12  and  C10_13 
REMARK    7  A    between atoms: C11_15  and  C12_16 
REMARK    8  A    between atoms: C12_16  and  O5_17 
REMARK    9  A    between atoms: C13_18  and  O6_19 
REMARK   10  A    between atoms: C14_20  and  O7_21 
REMARK   11  A    between atoms: C15_22  and  O8_23 
ROOT
HETATM    1  C5  UNL     1      -4.748  48.837 -24.344  1.00  0.00     0.086 C 
HETATM    2  C6  UNL     1      -4.668  48.132 -25.751  1.00  0.00     0.023 C 
HETATM    3  C7  UNL     1      -3.574  48.700 -26.669  1.00  0.00     0.013 C 
HETATM    4  C8  UNL     1      -6.014  48.200 -26.483  1.00  0.00     0.039 C 
HETATM    5  C9  UNL     1      -7.098  47.409 -25.747  1.00  0.00     0.126 C 
HETATM    6  C16 UNL     1      -6.834  47.316 -24.235  1.00  0.00     0.044 C 
HETATM    7  C17 UNL     1      -6.156  48.571 -23.625  1.00  0.00    -0.010 C 
HETATM    8  C18 UNL     1      -7.115  49.784 -23.746  1.00  0.00     0.018 C 
HETATM    9  C19 UNL     1      -6.026  48.309 -22.101  1.00  0.00     0.018 C 
ENDROOT
BRANCH   5  10
HETATM   10  O3  UNL     1      -8.395  47.986 -25.938  1.00  0.00    -0.353 OA
BRANCH  10  11
HETATM   11  C10 UNL     1      -9.360  47.094 -26.506  1.00  0.00     0.292 C 
HETATM   12  O4  UNL     1      -8.894  46.411 -27.668  1.00  0.00    -0.348 OA
HETATM   13  C11 UNL     1      -9.180  47.022 -28.942  1.00  0.00     0.179 C 
HETATM   14  C13 UNL     1     -10.696  47.266 -29.135  1.00  0.00     0.180 C 
HETATM   15  C14 UNL     1     -11.470  47.205 -27.814  1.00  0.00     0.183 C 
HETATM   16  C15 UNL     1     -10.655  47.897 -26.733  1.00  0.00     0.204 C 
BRANCH  13  17
HETATM   17  C12 UNL     1      -8.288  48.247 -29.212  1.00  0.00     0.198 C 
BRANCH  17  18
HETATM   18  O5  UNL     1      -8.762  49.365 -28.457  1.00  0.00    -0.398 OA
HETATM   19  H20 UNL     1      -8.375  50.162 -28.857  1.00  0.00     0.209 HD
ENDBRANCH  17  18
ENDBRANCH  13  17
BRANCH  14  20
HETATM   20  O6  UNL     1     -10.959  48.528 -29.764  1.00  0.00    -0.390 OA
HETATM   21  H22 UNL     1     -11.910  48.699 -29.587  1.00  0.00     0.210 HD
ENDBRANCH  14  20
BRANCH  15  22
HETATM   22  O7  UNL     1     -12.739  47.863 -27.977  1.00  0.00    -0.390 OA
HETATM   23  H24 UNL     1     -13.060  48.010 -27.064  1.00  0.00     0.210 HD
ENDBRANCH  15  22
BRANCH  16  24
HETATM   24  O8  UNL     1     -11.438  47.986 -25.528  1.00  0.00    -0.388 OA
HETATM   25  H26 UNL     1     -10.869  48.443 -24.879  1.00  0.00     0.210 HD
ENDBRANCH  16  24
ENDBRANCH  10  11
ENDBRANCH   5  10
BRANCH   1  26
HETATM   26  C4  UNL     1      -3.557  48.514 -23.445  1.00  0.00     0.010 C 
HETATM   27  C3  UNL     1      -2.704  49.351 -22.825  1.00  0.00     0.003 C 
BRANCH  27  28
HETATM   28  C2  UNL     1      -1.548  48.958 -21.939  1.00  0.00     0.136 C 
HETATM   29  C1  UNL     1      -1.665  47.511 -21.477  1.00  0.00     0.043 C 
BRANCH  28  30
HETATM   30  O1  UNL     1      -1.468  49.800 -20.797  1.00  0.00    -0.392 OA
HETATM   31  H5  UNL     1      -2.265  49.637 -20.265  1.00  0.00     0.210 HD
ENDBRANCH  28  30
ENDBRANCH  27  28
ENDBRANCH   1  26
BRANCH   1  32
HETATM   32  O2  UNL     1      -4.638  50.254 -24.560  1.00  0.00    -0.385 OA
HETATM   33  H8  UNL     1      -3.714  50.449 -24.796  1.00  0.00     0.211 HD
ENDBRANCH   1  32
TORSDOF 11
ENDMDL
