MODEL 1
REMARK minimizedAffinity -7.51627922
REMARK CNNscore 0.71063894
REMARK CNNaffinity 6.72042036
REMARK  6 active torsions:
REMARK  status: ('A' for Active; 'I' for Inactive)
REMARK    1  A    between atoms: C2_2  and  C3_3 
REMARK    2  A    between atoms: C5_5  and  C6_6 
REMARK    3  A    between atoms: C6_6  and  C7_7 
REMARK    4  A    between atoms: C8_8  and  C9_9 
REMARK       I    between atoms: C9_9  and  N1_11 
REMARK    5  A    between atoms: N1_11  and  C10_12 
REMARK    6  A    between atoms: C10_12  and  C12_14 
ROOT
HETATM    1  C7  UNL     1       2.090  54.277  -9.555  1.00  0.00     0.036 C 
HETATM    2  C8  UNL     1       3.023  53.159 -10.004  1.00  0.00     0.011 C 
HETATM    3  C18 UNL     1       4.306  53.035  -9.622  1.00  0.00    -0.013 C 
HETATM    4  C19 UNL     1       4.976  53.984  -8.686  1.00  0.00     0.034 C 
HETATM    5  C20 UNL     1       3.981  54.855  -7.889  1.00  0.00     0.005 C 
HETATM    6  C21 UNL     1       4.708  55.861  -6.908  1.00  0.00    -0.043 C 
HETATM    7  C22 UNL     1       6.071  56.381  -7.417  1.00  0.00     0.015 C 
HETATM    8  C23 UNL     1       5.003  55.108  -5.582  1.00  0.00     0.015 C 
HETATM    9  C24 UNL     1       3.822  57.085  -6.587  1.00  0.00     0.009 C 
HETATM   10  C25 UNL     1       2.348  56.733  -6.579  1.00  0.00     0.002 C 
HETATM   11  C26 UNL     1       1.856  56.289  -7.955  1.00  0.00     0.010 C 
HETATM   12  C27 UNL     1       2.870  55.471  -8.819  1.00  0.00    -0.031 C 
HETATM   13  C28 UNL     1       3.506  56.415  -9.871  1.00  0.00     0.016 C 
ENDROOT
BRANCH   2  14
HETATM   14  C9  UNL     1       2.451  52.039 -10.805  1.00  0.00     0.248 C 
HETATM   15  O1  UNL     1       1.774  51.166 -10.279  1.00  0.00    -0.268 OA
HETATM   16  N1  UNL     1       2.730  52.123 -12.145  1.00  0.00    -0.349 N 
HETATM   17  H11 UNL     1       3.371  52.839 -12.458  1.00  0.00     0.163 HD
BRANCH  16  18
HETATM   18  C10 UNL     1       2.440  51.033 -13.059  1.00  0.00     0.114 C 
HETATM   19  C11 UNL     1       1.135  50.348 -12.654  1.00  0.00     0.037 C 
BRANCH  18  20
HETATM   20  C12 UNL     1       2.460  51.564 -14.485  1.00  0.00    -0.036 A 
HETATM   21  C13 UNL     1       1.311  51.639 -15.287  1.00  0.00     0.009 A 
HETATM   22  C14 UNL     1       1.378  52.164 -16.580  1.00  0.00     0.001 A 
HETATM   23  C15 UNL     1       2.588  52.633 -17.086  1.00  0.00     0.000 A 
HETATM   24  C16 UNL     1       3.734  52.581 -16.298  1.00  0.00     0.001 A 
HETATM   25  C17 UNL     1       3.669  52.055 -15.007  1.00  0.00     0.009 A 
ENDBRANCH  18  20
ENDBRANCH  16  18
ENDBRANCH   2  14
BRANCH   1  26
HETATM   26  C6  UNL     1       1.170  54.721 -10.743  1.00  0.00     0.038 C 
BRANCH  26  27
HETATM   27  C5  UNL     1      -0.294  54.847 -10.411  1.00  0.00    -0.019 C 
HETATM   28  C3  UNL     1      -1.315  54.028 -10.747  1.00  0.00    -0.067 C 
HETATM   29  C4  UNL     1      -1.158  52.759 -11.544  1.00  0.00     0.048 C 
BRANCH  28  30
HETATM   30  C2  UNL     1      -2.661  54.387 -10.303  1.00  0.00    -0.004 C 
HETATM   31  C1  UNL     1      -3.808  53.804 -10.674  1.00  0.00     0.012 C 
ENDBRANCH  28  30
ENDBRANCH  26  27
ENDBRANCH   1  26
TORSDOF 6
ENDMDL
