MODEL 1
REMARK minimizedAffinity -6.9688673
REMARK  7 active torsions:
REMARK  status: ('A' for Active; 'I' for Inactive)
REMARK    1  A    between atoms: C2_2  and  N1_3 
REMARK    2  A    between atoms: N1_3  and  C3_4 
REMARK    3  A    between atoms: N1_3  and  C5_6 
REMARK    4  A    between atoms: C5_6  and  C6_7 
REMARK    5  A    between atoms: C6_7  and  N2_8 
REMARK       I    between atoms: N2_8  and  C7_9 
REMARK    6  A    between atoms: C7_9  and  C8_11 
REMARK    7  A    between atoms: C11_14  and  N3_15 
REMARK       I    between atoms: N3_15  and  C12_16 
ROOT
HETATM    1  C8  UNL     1      -6.403   3.262  12.328  1.00  0.00     0.032 A 
HETATM    2  C9  UNL     1      -5.187   3.890  12.612  1.00  0.00     0.019 A 
HETATM    3  C10 UNL     1      -3.975   3.253  12.311  1.00  0.00     0.030 A 
HETATM    4  C11 UNL     1      -3.963   1.988  11.719  1.00  0.00     0.034 A 
HETATM    5  C14 UNL     1      -5.184   1.371  11.422  1.00  0.00     0.030 A 
HETATM    6  C15 UNL     1      -6.396   2.002  11.721  1.00  0.00     0.019 A 
ENDROOT
BRANCH   1   7
HETATM    7  C7  UNL     1      -7.717   3.898  12.628  1.00  0.00     0.251 C 
HETATM    8  N2  UNL     1      -7.751   5.277  12.593  1.00  0.00    -0.355 N 
HETATM    9  H15 UNL     1      -6.869   5.761  12.712  1.00  0.00     0.162 HD
HETATM   10  O1  UNL     1      -8.685   3.204  12.922  1.00  0.00    -0.268 OA
BRANCH   8  11
HETATM   11  C6  UNL     1      -8.902   5.999  13.111  1.00  0.00     0.153 C 
BRANCH  11  12
HETATM   12  C5  UNL     1      -8.646   6.507  14.544  1.00  0.00     0.292 C 
BRANCH  12  13
HETATM   13  N1  UNL     1      -7.289   7.074  14.739  1.00  0.00     0.089 N 
BRANCH  13  14
HETATM   14  C2  UNL     1      -6.511   6.293  15.715  1.00  0.00     0.268 C 
HETATM   15  C1  UNL     1      -5.014   6.328  15.423  1.00  0.00     0.037 C 
ENDBRANCH  13  14
BRANCH  13  16
HETATM   16  C3  UNL     1      -7.295   8.507  15.080  1.00  0.00     0.268 C 
HETATM   17  C4  UNL     1      -8.661   9.159  15.275  1.00  0.00     0.037 C 
ENDBRANCH  13  16
ENDBRANCH  12  13
ENDBRANCH  11  12
ENDBRANCH   8  11
ENDBRANCH   1   7
BRANCH   4  18
HETATM   18  N3  UNL     1      -2.787   1.284  11.387  1.00  0.00    -0.328 N 
HETATM   19  C12 UNL     1      -1.649   1.783  10.782  1.00  0.00     0.218 C 
HETATM   20  C13 UNL     1      -0.603   0.714  10.586  1.00  0.00     0.117 C 
HETATM   21  O2  UNL     1      -1.445   2.938  10.427  1.00  0.00    -0.274 OA
HETATM   22  H18 UNL     1      -2.779   0.301  11.626  1.00  0.00     0.169 HD
ENDBRANCH   4  18
TORSDOF 7
ENDMDL
