MODEL 1
REMARK minimizedAffinity -8.0418148
REMARK CNNscore 0.554563999
REMARK CNNaffinity 7.14298677
REMARK  11 active torsions:
REMARK  status: ('A' for Active; 'I' for Inactive)
REMARK    1  A    between atoms: C2_2  and  C4_4 
REMARK    2  A    between atoms: C4_4  and  C6_6 
REMARK    3  A    between atoms: C7_7  and  C8_8 
REMARK    4  A    between atoms: C8_8  and  C10_10 
REMARK    5  A    between atoms: C24_24  and  O1_25 
REMARK    6  A    between atoms: O1_25  and  C25_26 
REMARK    7  A    between atoms: C26_28  and  C27_29 
REMARK    8  A    between atoms: C27_29  and  O3_30 
REMARK    9  A    between atoms: C28_31  and  O4_32 
REMARK   10  A    between atoms: C29_33  and  O5_34 
REMARK   11  A    between atoms: C30_35  and  O6_36 
ROOT
HETATM    1  C10 UNL     1       3.158  55.250  -8.323  1.00  0.00     0.001 C 
HETATM    2  C11 UNL     1       2.271  56.226  -7.491  1.00  0.00     0.006 C 
HETATM    3  C12 UNL     1       0.805  55.884  -7.807  1.00  0.00     0.009 C 
HETATM    4  C13 UNL     1       0.908  54.601  -8.621  1.00  0.00     0.032 C 
HETATM    5  C14 UNL     1       2.196  54.786  -9.465  1.00  0.00    -0.033 C 
HETATM    6  C15 UNL     1       2.111  55.866 -10.563  1.00  0.00     0.016 C 
HETATM    7  C16 UNL     1       2.530  53.419 -10.093  1.00  0.00     0.010 C 
HETATM    8  C17 UNL     1       1.346  52.837 -10.887  1.00  0.00     0.009 C 
HETATM    9  C18 UNL     1       0.059  52.723 -10.048  1.00  0.00     0.035 C 
HETATM   10  C19 UNL     1      -0.336  54.049  -9.331  1.00  0.00     0.105 C 
HETATM   11  C20 UNL     1      -1.101  55.004 -10.251  1.00  0.00     0.045 C 
HETATM   12  C21 UNL     1      -2.463  54.377 -10.571  1.00  0.00     0.045 C 
HETATM   13  C22 UNL     1      -2.434  52.881 -10.204  1.00  0.00     0.106 C 
HETATM   14  C23 UNL     1      -3.766  52.219 -10.582  1.00  0.00     0.074 C 
HETATM   15  C24 UNL     1      -3.803  50.721 -10.259  1.00  0.00     0.127 C 
HETATM   16  C31 UNL     1      -2.618  49.995 -10.900  1.00  0.00     0.033 C 
HETATM   17  C32 UNL     1      -1.288  50.619 -10.486  1.00  0.00     0.015 C 
HETATM   18  C33 UNL     1      -1.195  52.141 -10.800  1.00  0.00    -0.003 C 
HETATM   19  C34 UNL     1      -1.121  52.314 -12.335  1.00  0.00     0.019 C 
HETATM   20  O7  UNL     1      -2.297  52.776  -8.767  1.00  0.00    -0.228 OA
HETATM   21  O8  UNL     1      -1.293  53.744  -8.282  1.00  0.00    -0.228 OA
ENDROOT
BRANCH  15  22
HETATM   22  O1  UNL     1      -5.067  50.228 -10.728  1.00  0.00    -0.353 OA
BRANCH  22  23
HETATM   23  C25 UNL     1      -5.866  49.630  -9.711  1.00  0.00     0.292 C 
HETATM   24  O2  UNL     1      -5.596  48.235  -9.606  1.00  0.00    -0.348 OA
HETATM   25  C26 UNL     1      -5.852  47.467 -10.803  1.00  0.00     0.179 C 
HETATM   26  C28 UNL     1      -6.933  48.084 -11.710  1.00  0.00     0.180 C 
HETATM   27  C29 UNL     1      -7.987  48.736 -10.825  1.00  0.00     0.183 C 
HETATM   28  C30 UNL     1      -7.369  49.873 -10.001  1.00  0.00     0.204 C 
BRANCH  25  29
HETATM   29  C27 UNL     1      -4.567  47.192 -11.601  1.00  0.00     0.198 C 
BRANCH  29  30
HETATM   30  O3  UNL     1      -4.883  46.817 -12.942  1.00  0.00    -0.398 OA
HETATM   31  H43 UNL     1      -4.104  47.026 -13.488  1.00  0.00     0.209 HD
ENDBRANCH  29  30
ENDBRANCH  25  29
BRANCH  26  32
HETATM   32  O4  UNL     1      -7.542  47.078 -12.527  1.00  0.00    -0.390 OA
HETATM   33  H45 UNL     1      -8.387  47.477 -12.828  1.00  0.00     0.210 HD
ENDBRANCH  26  32
BRANCH  27  34
HETATM   34  O5  UNL     1      -9.065  49.225 -11.643  1.00  0.00    -0.390 OA
HETATM   35  H47 UNL     1      -9.662  49.702 -11.035  1.00  0.00     0.210 HD
ENDBRANCH  27  34
BRANCH  28  36
HETATM   36  O6  UNL     1      -8.133  49.976  -8.781  1.00  0.00    -0.388 OA
HETATM   37  H49 UNL     1      -7.858  49.240  -8.205  1.00  0.00     0.210 HD
ENDBRANCH  28  36
ENDBRANCH  22  23
ENDBRANCH  15  22
BRANCH   1  38
HETATM   38  C8  UNL     1       4.533  55.875  -8.674  1.00  0.00     0.008 C 
HETATM   39  C9  UNL     1       5.315  55.066  -9.711  1.00  0.00     0.014 C 
BRANCH  38  40
HETATM   40  C7  UNL     1       5.388  55.984  -7.424  1.00  0.00    -0.026 C 
HETATM   41  C6  UNL     1       5.622  57.138  -6.777  1.00  0.00    -0.026 C 
BRANCH  41  42
HETATM   42  C4  UNL     1       6.454  57.336  -5.522  1.00  0.00     0.007 C 
HETATM   43  C5  UNL     1       6.641  58.816  -5.155  1.00  0.00     0.014 C 
BRANCH  42  44
HETATM   44  C2  UNL     1       7.815  56.585  -5.620  1.00  0.00    -0.015 C 
HETATM   45  C1  UNL     1       8.152  55.833  -4.328  1.00  0.00     0.010 C 
HETATM   46  C3  UNL     1       7.851  55.588  -6.788  1.00  0.00     0.010 C 
ENDBRANCH  42  44
ENDBRANCH  41  42
ENDBRANCH  38  40
ENDBRANCH   1  38
TORSDOF 11
ENDMDL
