MODEL 1
REMARK minimizedAffinity -6.8978734
REMARK CNNscore 0.449016273
REMARK CNNaffinity 5.56942606
REMARK  6 active torsions:
REMARK  status: ('A' for Active; 'I' for Inactive)
REMARK    1  A    between atoms: C2_2  and  C3_3 
REMARK    2  A    between atoms: C6_6  and  O1_7 
REMARK    3  A    between atoms: C7_8  and  C8_9 
REMARK    4  A    between atoms: C20_25  and  O5_26 
REMARK    5  A    between atoms: C26_32  and  O6_33 
REMARK    6  A    between atoms: C31_39  and  O8_40 
ROOT
HETATM    1  C3  UNL     1      13.463  -6.002   7.405  1.00  0.00     0.008 C 
HETATM    2  C4  UNL     1      13.197  -7.267   6.607  1.00  0.00    -0.023 C 
HETATM    3  C5  UNL     1      14.138  -7.950   5.928  1.00  0.00     0.004 C 
HETATM    4  C6  UNL     1      13.863  -9.192   5.126  1.00  0.00     0.174 C 
HETATM    5  C7  UNL     1      13.540  -8.890   3.630  1.00  0.00     0.187 C 
HETATM    6  O2  UNL     1      14.698  -8.424   2.909  1.00  0.00    -0.308 OA
HETATM    7  C12 UNL     1      14.445  -7.501   1.938  1.00  0.00     0.276 C 
HETATM    8  O3  UNL     1      13.323  -7.047   1.712  1.00  0.00    -0.264 OA
HETATM    9  C13 UNL     1      15.717  -7.036   1.127  1.00  0.00     0.090 C 
HETATM   10  C14 UNL     1      15.209  -7.089  -0.345  1.00  0.00     0.035 C 
HETATM   11  C15 UNL     1      16.887  -7.988   1.273  1.00  0.00     0.003 C 
HETATM   12  C16 UNL     1      18.083  -7.860   0.681  1.00  0.00     0.072 C 
HETATM   13  C17 UNL     1      18.496  -6.769  -0.222  1.00  0.00     0.245 C 
HETATM   14  O4  UNL     1      19.357  -6.992  -1.071  1.00  0.00    -0.268 OA
HETATM   15  N1  UNL     1      18.033  -5.498  -0.050  1.00  0.00    -0.324 N 
HETATM   16  C18 UNL     1      17.166  -4.937   0.872  1.00  0.00     0.052 C 
HETATM   17  C19 UNL     1      16.162  -5.598   1.489  1.00  0.00     0.000 C 
HETATM   18  C20 UNL     1      15.449  -4.953   2.660  1.00  0.00     0.185 C 
HETATM   19  C21 UNL     1      15.580  -3.459   2.859  1.00  0.00     0.001 A 
HETATM   20  C22 UNL     1      16.567  -2.766   2.131  1.00  0.00    -0.013 A 
HETATM   21  C23 UNL     1      16.703  -1.372   2.277  1.00  0.00     0.020 A 
HETATM   22  C24 UNL     1      15.853  -0.639   3.108  1.00  0.00    -0.027 A 
HETATM   23  C25 UNL     1      15.992   0.854   3.202  1.00  0.00     0.051 C 
HETATM   24  C26 UNL     1      14.849  -1.319   3.801  1.00  0.00     0.086 A 
HETATM   25  C27 UNL     1      14.720  -2.723   3.720  1.00  0.00     0.053 A 
HETATM   26  C28 UNL     1      13.632  -3.324   4.563  1.00  0.00     0.163 C 
HETATM   27  O7  UNL     1      12.565  -2.713   4.647  1.00  0.00    -0.292 OA
HETATM   28  C29 UNL     1      13.894  -4.595   5.334  1.00  0.00     0.084 C 
HETATM   29  C30 UNL     1      13.047  -4.747   6.601  1.00  0.00     0.016 C 
HETATM   30  C31 UNL     1      17.488  -3.477   1.170  1.00  0.00     0.202 C 
HETATM   31  H24 UNL     1      18.589  -4.854  -0.609  1.00  0.00     0.169 HD
ENDROOT
BRANCH   5  32
HETATM   32  C8  UNL     1      12.921 -10.098   2.944  1.00  0.00     0.010 C 
HETATM   33  C9  UNL     1      11.688 -10.638   3.029  1.00  0.00    -0.089 C 
HETATM   34  C10 UNL     1      11.363 -11.910   2.285  1.00  0.00     0.042 C 
HETATM   35  C11 UNL     1      10.537 -10.081   3.815  1.00  0.00     0.042 C 
ENDBRANCH   5  32
BRANCH   4  36
HETATM   36  O1  UNL     1      15.000 -10.043   5.282  1.00  0.00    -0.389 OA
HETATM   37  H10 UNL     1      14.802 -10.857   4.789  1.00  0.00     0.210 HD
ENDBRANCH   4  36
BRANCH   1  38
HETATM   38  C2  UNL     1      12.723  -6.100   8.755  1.00  0.00     0.004 C 
HETATM   39  C1  UNL     1      11.675  -5.012   8.957  1.00  0.00     0.006 C 
ENDBRANCH   1  38
BRANCH  18  40
HETATM   40  O5  UNL     1      16.002  -5.622   3.786  1.00  0.00    -0.386 OA
HETATM   41  H26 UNL     1      16.819  -5.156   4.033  1.00  0.00     0.210 HD
ENDBRANCH  18  40
BRANCH  30  42
HETATM   42  O8  UNL     1      18.811  -3.385   1.699  1.00  0.00    -0.385 OA
HETATM   43  H37 UNL     1      19.212  -4.273   1.666  1.00  0.00     0.211 HD
ENDBRANCH  30  42
BRANCH  24  44
HETATM   44  O6  UNL     1      14.001  -0.550   4.564  1.00  0.00    -0.359 OA
HETATM   45  H31 UNL     1      13.188  -1.075   4.736  1.00  0.00     0.217 HD
ENDBRANCH  24  44
TORSDOF 6
ENDMDL
