MODEL 1
REMARK minimizedAffinity -8.75150013
REMARK  12 active torsions:
REMARK  status: ('A' for Active; 'I' for Inactive)
REMARK    1  A    between atoms: C2_2  and  C17_19 
REMARK    2  A    between atoms: C3_3  and  C4_4 
REMARK    3  A    between atoms: C4_4  and  C5_5 
REMARK    4  A    between atoms: C5_5  and  C6_6 
REMARK    5  A    between atoms: C12_12  and  O1_13 
REMARK    6  A    between atoms: C17_19  and  C18_20 
REMARK    7  A    between atoms: C19_21  and  C20_22 
REMARK    8  A    between atoms: C20_22  and  C22_24 
REMARK    9  A    between atoms: C22_24  and  C23_26 
REMARK   10  A    between atoms: C23_26  and  O4_27 
REMARK   11  A    between atoms: C23_26  and  C24_28 
REMARK   12  A    between atoms: C24_28  and  C25_29 
ROOT
HETATM    1  C1  UNL     1      -0.669  10.296  14.597  1.00  0.00     0.043 C 
HETATM    2  C2  UNL     1      -0.435   9.247  13.544  1.00  0.00    -0.084 C 
HETATM    3  C3  UNL     1      -1.421   8.541  12.952  1.00  0.00    -0.024 C 
ENDROOT
BRANCH   3   4
HETATM    4  C4  UNL     1      -2.904   8.721  13.129  1.00  0.00     0.030 C 
BRANCH   4   5
HETATM    5  C5  UNL     1      -3.775   7.466  12.986  1.00  0.00     0.042 C 
BRANCH   5   6
HETATM    6  C6  UNL     1      -3.736   6.395  14.107  1.00  0.00     0.065 C 
HETATM    7  C7  UNL     1      -3.721   7.056  15.496  1.00  0.00     0.046 C 
HETATM    8  C8  UNL     1      -2.561   5.412  14.025  1.00  0.00     0.043 C 
HETATM    9  C9  UNL     1      -2.626   4.582  12.754  1.00  0.00     0.044 C 
HETATM   10  C10 UNL     1      -4.012   4.046  12.550  1.00  0.00    -0.021 A 
HETATM   11  C11 UNL     1      -4.218   2.973  11.672  1.00  0.00     0.046 A 
HETATM   12  C16 UNL     1      -5.108   4.623  13.207  1.00  0.00     0.082 A 
HETATM   13  C12 UNL     1      -5.502   2.475  11.480  1.00  0.00     0.066 A 
HETATM   14  C13 UNL     1      -6.586   3.031  12.144  1.00  0.00     0.046 A 
HETATM   15  C14 UNL     1      -6.401   4.111  13.017  1.00  0.00    -0.025 A 
HETATM   16  C15 UNL     1      -7.580   4.703  13.737  1.00  0.00     0.051 C 
HETATM   17  O2  UNL     1      -4.997   5.686  14.063  1.00  0.00    -0.340 OA
BRANCH  13  18
HETATM   18  O1  UNL     1      -5.742   1.430  10.635  1.00  0.00    -0.361 OA
HETATM   19  H17 UNL     1      -4.892   1.113  10.283  1.00  0.00     0.217 HD
ENDBRANCH  13  18
ENDBRANCH   5   6
ENDBRANCH   4   5
ENDBRANCH   3   4
BRANCH   2  20
HETATM   20  C17 UNL     1       1.025   8.993  13.195  1.00  0.00     0.060 C 
BRANCH  20  21
HETATM   21  C18 UNL     1       1.316   7.522  13.095  1.00  0.00    -0.026 C 
HETATM   22  C19 UNL     1       2.303   6.876  12.446  1.00  0.00    -0.019 C 
BRANCH  22  23
HETATM   23  C20 UNL     1       3.422   7.401  11.577  1.00  0.00     0.076 C 
HETATM   24  C21 UNL     1       4.568   8.082  12.328  1.00  0.00     0.022 C 
BRANCH  23  25
HETATM   25  C22 UNL     1       3.921   6.286  10.645  1.00  0.00     0.162 C 
HETATM   26  O3  UNL     1       5.099   5.907  10.635  1.00  0.00    -0.294 OA
BRANCH  25  27
HETATM   27  C23 UNL     1       2.885   5.553   9.769  1.00  0.00     0.188 C 
BRANCH  27  28
HETATM   28  O4  UNL     1       3.020   4.140   9.899  1.00  0.00    -0.388 OA
HETATM   29  H31 UNL     1       3.748   3.988  10.538  1.00  0.00     0.210 HD
ENDBRANCH  27  28
BRANCH  27  30
HETATM   30  C24 UNL     1       2.883   5.941   8.283  1.00  0.00     0.043 C 
BRANCH  30  31
HETATM   31  C25 UNL     1       2.174   7.240   7.831  1.00  0.00    -0.020 C 
HETATM   32  C26 UNL     1       1.651   7.189   6.392  1.00  0.00     0.009 C 
HETATM   33  C27 UNL     1       3.007   8.501   8.051  1.00  0.00     0.009 C 
ENDBRANCH  30  31
ENDBRANCH  27  30
ENDBRANCH  25  27
ENDBRANCH  23  25
ENDBRANCH  22  23
ENDBRANCH  20  21
ENDBRANCH   2  20
TORSDOF 12
ENDMDL
