MODEL 1
REMARK minimizedAffinity -7.39936733
REMARK CNNscore 0.600104988
REMARK CNNaffinity 6.82119989
REMARK  7 active torsions:
REMARK  status: ('A' for Active; 'I' for Inactive)
REMARK    1  A    between atoms: C7_7  and  O1_8 
REMARK    2  A    between atoms: C19_21  and  O3_22 
REMARK    3  A    between atoms: C20_23  and  C22_25 
REMARK    4  A    between atoms: C22_25  and  O4_26 
REMARK    5  A    between atoms: C22_25  and  C23_27 
REMARK    6  A    between atoms: C23_27  and  O5_28 
REMARK    7  A    between atoms: C32_37  and  O6_38 
ROOT
HETATM    1  C1  UNL     1       3.686  56.776 -10.693  1.00  0.00     0.015 C 
HETATM    2  C2  UNL     1       4.029  55.584  -9.764  1.00  0.00    -0.043 C 
HETATM    3  C3  UNL     1       5.540  55.219 -10.047  1.00  0.00     0.010 C 
HETATM    4  C4  UNL     1       6.168  53.961  -9.382  1.00  0.00     0.012 C 
HETATM    5  C5  UNL     1       5.296  53.363  -8.371  1.00  0.00     0.082 C 
HETATM    6  C6  UNL     1       4.312  53.169  -7.708  1.00  0.00    -0.151 C 
HETATM    7  C7  UNL     1       2.996  53.272  -7.060  1.00  0.00     0.196 C 
HETATM    8  C8  UNL     1       2.035  54.364  -7.730  1.00  0.00     0.037 C 
HETATM    9  C9  UNL     1       2.554  55.845  -7.575  1.00  0.00     0.031 C 
HETATM   10  C10 UNL     1       3.891  56.096  -8.306  1.00  0.00     0.019 C 
HETATM   11  C11 UNL     1       2.532  56.422  -6.127  1.00  0.00    -0.062 C 
HETATM   12  C12 UNL     1       3.569  57.116  -5.612  1.00  0.00     0.054 C 
HETATM   13  C13 UNL     1       3.529  57.821  -4.302  1.00  0.00     0.155 C 
HETATM   14  O2  UNL     1       4.569  58.321  -3.880  1.00  0.00    -0.293 OA
HETATM   15  C14 UNL     1       2.172  57.929  -3.596  1.00  0.00     0.077 C 
HETATM   16  C15 UNL     1       2.194  58.611  -2.160  1.00  0.00    -0.028 C 
HETATM   17  C16 UNL     1       3.312  57.996  -1.253  1.00  0.00     0.016 C 
HETATM   18  C17 UNL     1       2.543  60.129  -2.371  1.00  0.00     0.013 C 
HETATM   19  C18 UNL     1       1.327  60.997  -2.651  1.00  0.00     0.033 C 
HETATM   20  C19 UNL     1       0.359  61.039  -1.470  1.00  0.00     0.129 C 
HETATM   21  C20 UNL     1       0.321  59.753  -0.587  1.00  0.00     0.014 C 
HETATM   22  C21 UNL     1       1.283  59.861   0.637  1.00  0.00     0.021 C 
HETATM   23  C24 UNL     1       0.774  58.466  -1.437  1.00  0.00     0.008 C 
HETATM   24  C25 UNL     1      -0.295  57.936  -2.415  1.00  0.00     0.007 C 
HETATM   25  C26 UNL     1       0.095  56.572  -2.974  1.00  0.00     0.011 C 
HETATM   26  C27 UNL     1       1.442  56.552  -3.738  1.00  0.00    -0.021 C 
HETATM   27  C28 UNL     1       2.296  55.437  -3.064  1.00  0.00     0.017 C 
HETATM   28  C29 UNL     1       1.223  56.250  -5.326  1.00  0.00    -0.010 C 
HETATM   29  C30 UNL     1       0.203  57.257  -5.948  1.00  0.00     0.021 C 
HETATM   30  C31 UNL     1       0.655  54.822  -5.523  1.00  0.00     0.047 C 
HETATM   31  C32 UNL     1       0.652  54.313  -6.966  1.00  0.00     0.132 C 
HETATM   32  C33 UNL     1       1.832  54.082  -9.321  1.00  0.00    -0.026 C 
HETATM   33  C34 UNL     1       1.404  52.625  -9.661  1.00  0.00     0.010 C 
HETATM   34  C35 UNL     1       0.849  52.673 -11.086  1.00  0.00     0.001 C 
HETATM   35  C36 UNL     1       0.299  54.083 -11.271  1.00  0.00     0.001 C 
HETATM   36  C37 UNL     1       0.641  54.843  -9.984  1.00  0.00     0.010 C 
HETATM   37  C38 UNL     1       3.121  54.390 -10.167  1.00  0.00     0.019 C 
ENDROOT
BRANCH  21  38
HETATM   38  C22 UNL     1      -1.130  59.570   0.023  1.00  0.00     0.152 C 
BRANCH  38  39
HETATM   39  O4  UNL     1      -1.266  58.293   0.673  1.00  0.00    -0.393 OA
HETATM   40  H28 UNL     1      -1.764  57.727   0.044  1.00  0.00     0.210 HD
ENDBRANCH  38  39
BRANCH  38  41
HETATM   41  C23 UNL     1      -2.324  59.651  -0.949  1.00  0.00     0.196 C 
BRANCH  41  42
HETATM   42  O5  UNL     1      -3.064  60.843  -0.678  1.00  0.00    -0.398 OA
HETATM   43  H31 UNL     1      -3.882  60.573  -0.202  1.00  0.00     0.209 HD
ENDBRANCH  41  42
ENDBRANCH  38  41
ENDBRANCH  21  38
BRANCH  20  44
HETATM   44  O3  UNL     1       0.644  62.195  -0.665  1.00  0.00    -0.395 OA
HETATM   45  H23 UNL     1       1.612  62.303  -0.632  1.00  0.00     0.210 HD
ENDBRANCH  20  44
BRANCH  31  46
HETATM   46  O6  UNL     1       0.114  52.987  -6.950  1.00  0.00    -0.395 OA
HETATM   47  H46 UNL     1      -0.751  53.022  -6.505  1.00  0.00     0.210 HD
ENDBRANCH  31  46
BRANCH   7  48
HETATM   48  O1  UNL     1       3.239  53.542  -5.681  1.00  0.00    -0.383 OA
HETATM   49  H9  UNL     1       4.171  53.350  -5.497  1.00  0.00     0.211 HD
ENDBRANCH   7  48
TORSDOF 7
ENDMDL
