MODEL 1
REMARK minimizedAffinity -7.12885904
REMARK CNNscore 0.585801005
REMARK CNNaffinity 6.83143234
REMARK  8 active torsions:
REMARK  status: ('A' for Active; 'I' for Inactive)
REMARK    1  A    between atoms: C12_14  and  C13_15 
REMARK    2  A    between atoms: C13_15  and  C15_17 
REMARK    3  A    between atoms: C15_17  and  C16_18 
REMARK    4  A    between atoms: C16_18  and  C17_19 
REMARK    5  A    between atoms: C26_28  and  C27_29 
REMARK    6  A    between atoms: C27_29  and  C28_30 
REMARK    7  A    between atoms: C28_30  and  C29_31 
REMARK    8  A    between atoms: C29_31  and  O4_33 
ROOT
HETATM    1  C1  UNL     1      -5.661  50.344 -10.160  1.00  0.00     0.025 C 
HETATM    2  C2  UNL     1      -4.361  50.065 -10.011  1.00  0.00     0.015 C 
HETATM    3  C3  UNL     1      -3.915  48.978  -9.107  1.00  0.00     0.289 C 
HETATM    4  O1  UNL     1      -4.616  48.130  -8.586  1.00  0.00    -0.260 OA
HETATM    5  O2  UNL     1      -2.566  49.081  -8.972  1.00  0.00    -0.311 OA
HETATM    6  C4  UNL     1      -2.101  50.305  -9.572  1.00  0.00     0.142 C 
HETATM    7  C5  UNL     1      -1.895  51.332  -8.465  1.00  0.00     0.039 C 
HETATM    8  C6  UNL     1      -1.541  52.753  -8.931  1.00  0.00     0.006 C 
HETATM    9  C7  UNL     1      -2.367  53.232 -10.151  1.00  0.00    -0.027 A 
HETATM   10  C8  UNL     1      -1.972  54.636 -10.656  1.00  0.00     0.011 C 
HETATM   11  C9  UNL     1      -0.464  54.904 -10.748  1.00  0.00     0.011 C 
HETATM   12  C10 UNL     1       0.242  54.553  -9.429  1.00  0.00    -0.032 C 
HETATM   13  C11 UNL     1      -0.296  55.486  -8.298  1.00  0.00     0.016 C 
HETATM   14  C12 UNL     1       1.804  54.620  -9.411  1.00  0.00    -0.002 C 
HETATM   15  C21 UNL     1       2.163  53.612  -8.274  1.00  0.00     0.006 C 
HETATM   16  C22 UNL     1       0.910  52.763  -7.980  1.00  0.00     0.011 C 
HETATM   17  C23 UNL     1      -0.018  53.011  -9.178  1.00  0.00    -0.032 C 
HETATM   18  C24 UNL     1       0.494  52.095 -10.335  1.00  0.00     0.016 C 
HETATM   19  C25 UNL     1      -3.872  53.112 -10.102  1.00  0.00     0.022 A 
HETATM   20  C26 UNL     1      -3.125  52.166 -11.018  1.00  0.00    -0.021 A 
HETATM   21  C31 UNL     1      -3.139  50.684 -10.614  1.00  0.00     0.063 C 
ENDROOT
BRANCH  14  22
HETATM   22  C13 UNL     1       2.537  55.988  -9.231  1.00  0.00    -0.014 C 
HETATM   23  C14 UNL     1       3.456  56.310 -10.413  1.00  0.00     0.010 C 
BRANCH  22  24
HETATM   24  C15 UNL     1       3.353  55.982  -7.906  1.00  0.00     0.008 C 
BRANCH  24  25
HETATM   25  C16 UNL     1       4.328  57.148  -7.690  1.00  0.00     0.028 C 
BRANCH  25  26
HETATM   26  C17 UNL     1       5.574  56.766  -6.940  1.00  0.00    -0.025 C 
HETATM   27  C18 UNL     1       6.577  55.973  -7.366  1.00  0.00    -0.091 C 
HETATM   28  C19 UNL     1       6.609  55.272  -8.697  1.00  0.00     0.042 C 
HETATM   29  C20 UNL     1       7.773  55.706  -6.489  1.00  0.00     0.042 C 
ENDBRANCH  25  26
ENDBRANCH  24  25
ENDBRANCH  22  24
ENDBRANCH  14  22
BRANCH  20  30
HETATM   30  C27 UNL     1      -3.103  52.361 -12.539  1.00  0.00     0.021 C 
BRANCH  30  31
HETATM   31  C28 UNL     1      -2.062  51.530 -13.281  1.00  0.00     0.112 C 
BRANCH  31  32
HETATM   32  C29 UNL     1      -2.679  50.628 -14.319  1.00  0.00     0.258 C 
HETATM   33  O3  UNL     1      -2.756  49.412 -14.218  1.00  0.00    -0.265 OA
BRANCH  32  34
HETATM   34  O4  UNL     1      -3.127  51.355 -15.382  1.00  0.00    -0.326 OA
HETATM   35  C30 UNL     1      -2.976  50.695 -16.639  1.00  0.00     0.213 C 
ENDBRANCH  32  34
ENDBRANCH  31  32
ENDBRANCH  30  31
ENDBRANCH  20  30
TORSDOF 8
ENDMDL
