MODEL 1
REMARK minimizedAffinity -8.66190624
REMARK  8 active torsions:
REMARK  status: ('A' for Active; 'I' for Inactive)
REMARK    1  A    between atoms: O1_2  and  C2_3 
REMARK    2  A    between atoms: C2_3  and  C3_4 
REMARK    3  A    between atoms: C3_4  and  O2_5 
REMARK    4  A    between atoms: O2_5  and  C4_6 
REMARK    5  A    between atoms: C7_9  and  C8_10 
REMARK    6  A    between atoms: C9_14  and  C10_15 
REMARK    7  A    between atoms: N2_19  and  C14_20 
REMARK    8  A    between atoms: C14_20  and  C15_21 
ROOT
HETATM    1  C8  UNL     1       0.194  52.355 -22.915  1.00  0.00     0.139 A 
HETATM    2  N1  UNL     1       0.696  53.253 -23.779  1.00  0.00    -0.242 N 
ATOM      3  H1  UNL     1       1.204  54.113 -23.569  1.00  0.00     0.196 HD
HETATM    4  O3  UNL     1       0.359  52.735 -25.029  1.00  0.00    -0.220 OA
HETATM    5  C9  UNL     1      -0.332  51.582 -24.797  1.00  0.00     0.182 A 
HETATM    6  N4  UNL     1      -0.476  51.314 -23.517  1.00  0.00    -0.321 N 
ATOM      7  H4  UNL     1      -0.962  50.531 -23.079  1.00  0.00     0.169 HD
ENDROOT
BRANCH   5   8
HETATM    8  C10 UNL     1      -0.825  50.840 -26.007  1.00  0.00     0.299 C 
HETATM    9  C11 UNL     1      -0.852  51.744 -27.241  1.00  0.00     0.046 C 
HETATM   10  C12 UNL     1      -2.279  52.269 -27.330  1.00  0.00     0.033 C 
HETATM   11  C13 UNL     1      -3.053  51.537 -26.244  1.00  0.00     0.274 C 
HETATM   12  N2  UNL     1      -2.228  50.390 -25.836  1.00  0.00     0.105 N 
BRANCH  12  13
HETATM   13  C14 UNL     1      -2.547  49.199 -26.635  1.00  0.00     0.314 C 
BRANCH  13  14
HETATM   14  C15 UNL     1      -3.915  48.683 -26.297  1.00  0.00    -0.002 A 
HETATM   15  C16 UNL     1      -4.441  48.539 -25.025  1.00  0.00     0.100 A 
HETATM   16  N3  UNL     1      -5.708  48.034 -25.134  1.00  0.00    -0.360 N 
HETATM   17  C17 UNL     1      -6.582  47.750 -24.018  1.00  0.00     0.155 C 
HETATM   18  C18 UNL     1      -6.033  47.834 -26.458  1.00  0.00     0.044 A 
HETATM   19  C19 UNL     1      -7.204  47.343 -27.057  1.00  0.00     0.030 A 
HETATM   20  C23 UNL     1      -4.924  48.233 -27.211  1.00  0.00     0.000 A 
HETATM   21  C20 UNL     1      -7.246  47.261 -28.452  1.00  0.00     0.002 A 
HETATM   22  C21 UNL     1      -6.158  47.653 -29.224  1.00  0.00     0.001 A 
HETATM   23  C22 UNL     1      -4.994  48.136 -28.617  1.00  0.00     0.014 A 
ENDBRANCH  13  14
ENDBRANCH  12  13
ENDBRANCH   5   8
BRANCH   1  24
HETATM   24  C7  UNL     1       0.326  52.458 -21.473  1.00  0.00     0.025 A 
HETATM   25  C6  UNL     1      -0.134  51.460 -20.608  1.00  0.00     0.021 A 
HETATM   26  C5  UNL     1       0.015  51.616 -19.229  1.00  0.00     0.057 A 
HETATM   27  C4  UNL     1       0.621  52.768 -18.755  1.00  0.00     0.141 A 
HETATM   28  N5  UNL     1       1.075  53.753 -19.554  1.00  0.00    -0.346 N 
HETATM   29  C24 UNL     1       0.918  53.575 -20.891  1.00  0.00     0.105 A 
ATOM     30  H5  UNL     1       1.516  54.591 -19.173  1.00  0.00     0.167 HD
BRANCH  27  31
HETATM   31  O2  UNL     1       0.732  52.881 -17.386  1.00  0.00    -0.334 OA
BRANCH  31  32
HETATM   32  C3  UNL     1       1.315  51.748 -16.735  1.00  0.00     0.203 C 
BRANCH  32  33
HETATM   33  C2  UNL     1       1.695  52.064 -15.286  1.00  0.00     0.193 C 
BRANCH  33  34
HETATM   34  O1  UNL     1       3.096  51.903 -15.050  1.00  0.00    -0.394 OA
HETATM   35  C1  UNL     1       3.900  52.507 -16.053  1.00  0.00     0.201 C 
ENDBRANCH  33  34
ENDBRANCH  32  33
ENDBRANCH  31  32
ENDBRANCH  27  31
ENDBRANCH   1  24
TORSDOF 8
ENDMDL
