MODEL 1
REMARK minimizedAffinity -6.94864845
REMARK CNNscore 0.315673083
REMARK CNNaffinity 6.83006144
REMARK  13 active torsions:
REMARK  status: ('A' for Active; 'I' for Inactive)
REMARK    1  A    between atoms: C3_3  and  O1_4 
REMARK    2  A    between atoms: N1_14  and  O2_16 
REMARK    3  A    between atoms: O2_16  and  C13_17 
REMARK    4  A    between atoms: C13_17  and  C14_18 
REMARK       I    between atoms: C14_18  and  N2_20 
REMARK    5  A    between atoms: N2_20  and  C15_21 
REMARK    6  A    between atoms: C15_21  and  C16_22 
REMARK    7  A    between atoms: C15_21  and  C21_33 
REMARK       I    between atoms: C16_22  and  N3_24 
REMARK    8  A    between atoms: N3_24  and  C17_25 
REMARK    9  A    between atoms: C17_25  and  C18_26 
REMARK   10  A    between atoms: C17_25  and  C20_30 
REMARK   11  A    between atoms: C18_26  and  C19_27 
REMARK   12  A    between atoms: C19_27  and  O6_29 
REMARK   13  A    between atoms: C20_30  and  O8_32 
ROOT
HETATM    1  C1  UNL     1      -3.218   5.369  14.348  1.00  0.00     0.015 C 
HETATM    2  C2  UNL     1      -4.343   5.683  14.059  1.00  0.00    -0.078 C 
HETATM    3  C3  UNL     1      -5.718   6.057  13.682  1.00  0.00     0.128 C 
HETATM    4  C4  UNL     1      -6.380   4.987  12.814  1.00  0.00     0.052 C 
HETATM    5  C5  UNL     1      -7.849   5.398  12.827  1.00  0.00     0.010 C 
HETATM    6  C6  UNL     1      -8.116   5.905  14.258  1.00  0.00     0.002 C 
HETATM    7  C7  UNL     1      -9.109   7.088  14.297  1.00  0.00    -0.004 C 
HETATM    8  C8  UNL     1     -10.498   6.663  13.757  1.00  0.00     0.010 C 
HETATM    9  C9  UNL     1     -11.686   7.259  14.519  1.00  0.00     0.035 C 
HETATM   10  C10 UNL     1     -11.413   8.694  14.871  1.00  0.00    -0.069 C 
HETATM   11  C11 UNL     1     -12.178   9.685  14.376  1.00  0.00     0.030 C 
HETATM   12  C12 UNL     1     -11.842  11.112  14.647  1.00  0.00     0.032 C 
HETATM   13  N1  UNL     1     -12.645  12.122  14.506  1.00  0.00    -0.271 N 
ATOM     14  H1  UNL     1     -12.381  13.090  14.688  1.00  0.00     0.194 HD
HETATM   15  C24 UNL     1     -10.445  11.428  15.158  1.00  0.00     0.060 C 
HETATM   16  C25 UNL     1      -9.507  10.223  15.176  1.00  0.00     0.020 C 
HETATM   17  C26 UNL     1     -10.182   8.947  15.742  1.00  0.00    -0.016 C 
HETATM   18  C27 UNL     1     -10.643   9.169  17.204  1.00  0.00     0.020 C 
HETATM   19  C28 UNL     1      -9.226   7.691  15.719  1.00  0.00     0.002 C 
HETATM   20  C29 UNL     1      -7.860   7.918  16.409  1.00  0.00     0.007 C 
HETATM   21  C30 UNL     1      -6.663   7.625  15.507  1.00  0.00     0.014 C 
HETATM   22  C31 UNL     1      -6.713   6.213  14.883  1.00  0.00     0.003 C 
HETATM   23  C32 UNL     1      -6.448   5.158  15.994  1.00  0.00     0.020 C 
ENDROOT
BRANCH   3  24
HETATM   24  O1  UNL     1      -5.677   7.259  12.906  1.00  0.00    -0.377 OA
HETATM   25  H2  UNL     1      -4.807   7.304  12.471  1.00  0.00     0.211 HD
ENDBRANCH   3  24
BRANCH  13  26
HETATM   26  O2  UNL     1     -13.921  11.724  14.074  1.00  0.00    -0.271 OA
BRANCH  26  27
HETATM   27  C13 UNL     1     -13.983  11.862  12.658  1.00  0.00     0.303 C 
BRANCH  27  28
HETATM   28  C14 UNL     1     -14.072  13.345  12.326  1.00  0.00     0.244 C 
HETATM   29  O3  UNL     1     -14.941  14.067  12.810  1.00  0.00    -0.271 OA
HETATM   30  N2  UNL     1     -13.125  13.784  11.412  1.00  0.00    -0.346 N 
HETATM   31  H16 UNL     1     -12.343  13.163  11.255  1.00  0.00     0.163 HD
BRANCH  30  32
HETATM   32  C15 UNL     1     -12.889  15.211  11.136  1.00  0.00     0.180 C 
BRANCH  32  33
HETATM   33  C16 UNL     1     -13.486  15.506   9.723  1.00  0.00     0.241 C 
HETATM   34  O4  UNL     1     -12.896  15.231   8.676  1.00  0.00    -0.271 OA
HETATM   35  N3  UNL     1     -14.769  16.026   9.702  1.00  0.00    -0.344 N 
HETATM   36  H18 UNL     1     -15.103  16.489  10.532  1.00  0.00     0.163 HD
BRANCH  35  37
HETATM   37  C17 UNL     1     -15.355  16.460   8.424  1.00  0.00     0.192 C 
BRANCH  37  38
HETATM   38  C18 UNL     1     -14.489  17.522   7.752  1.00  0.00     0.146 C 
BRANCH  38  39
HETATM   39  C19 UNL     1     -14.498  18.802   8.537  1.00  0.00     0.141 C 
HETATM   40  O5  UNL     1     -14.816  18.952   9.702  1.00  0.00    -0.650 OA
BRANCH  39  41
HETATM   41  O6  UNL     1     -14.038  19.839   7.813  1.00  0.00    -0.776 OA
HETATM   42  H22 UNL     1     -14.082  20.606   8.422  1.00  0.00     0.167 HD
ENDBRANCH  39  41
ENDBRANCH  38  39
ENDBRANCH  37  38
BRANCH  37  43
HETATM   43  C20 UNL     1     -15.515  15.287   7.448  1.00  0.00     0.164 C 
HETATM   44  O7  UNL     1     -16.266  14.334   7.594  1.00  0.00    -0.648 OA
BRANCH  43  45
HETATM   45  O8  UNL     1     -14.793  15.408   6.316  1.00  0.00    -0.775 OA
HETATM   46  H23 UNL     1     -14.952  14.566   5.837  1.00  0.00     0.167 HD
ENDBRANCH  43  45
ENDBRANCH  37  43
ENDBRANCH  35  37
ENDBRANCH  32  33
BRANCH  32  47
HETATM   47  C21 UNL     1     -11.428  15.674  11.397  1.00  0.00     0.009 C 
HETATM   48  C22 UNL     1     -11.019  15.411  12.856  1.00  0.00     0.012 C 
HETATM   49  C23 UNL     1     -11.185  17.160  11.110  1.00  0.00     0.012 C 
ENDBRANCH  32  47
ENDBRANCH  30  32
ENDBRANCH  27  28
ENDBRANCH  26  27
ENDBRANCH  13  26
TORSDOF 13
ENDMDL
