MODEL 1
REMARK minimizedAffinity -10.0099001
REMARK CNNscore 0.478665292
REMARK CNNaffinity 6.99459887
REMARK  11 active torsions:
REMARK  status: ('A' for Active; 'I' for Inactive)
REMARK    1  A    between atoms: C2_2  and  C4_4 
REMARK    2  A    between atoms: C4_4  and  C6_6 
REMARK    3  A    between atoms: C7_7  and  C8_8 
REMARK    4  A    between atoms: C8_8  and  C10_10 
REMARK    5  A    between atoms: C24_24  and  O1_25 
REMARK    6  A    between atoms: O1_25  and  C25_26 
REMARK    7  A    between atoms: C26_28  and  C27_29 
REMARK    8  A    between atoms: C27_29  and  O3_30 
REMARK    9  A    between atoms: C28_31  and  O4_32 
REMARK   10  A    between atoms: C29_33  and  O5_34 
REMARK   11  A    between atoms: C30_35  and  O6_36 
ROOT
HETATM    1  C10 UNL     1      -5.957   6.495  14.333  1.00  0.00     0.002 C 
HETATM    2  C11 UNL     1      -6.287   7.807  13.590  1.00  0.00     0.006 C 
HETATM    3  C12 UNL     1      -4.975   8.259  12.956  1.00  0.00     0.009 C 
HETATM    4  C13 UNL     1      -3.956   7.925  14.049  1.00  0.00     0.041 C 
HETATM    5  C14 UNL     1      -4.381   6.486  14.474  1.00  0.00    -0.029 C 
HETATM    6  C15 UNL     1      -3.838   6.159  15.873  1.00  0.00     0.016 C 
HETATM    7  C16 UNL     1      -3.830   5.420  13.470  1.00  0.00     0.037 C 
HETATM    8  C17 UNL     1      -2.430   5.652  13.002  1.00  0.00    -0.019 C 
HETATM    9  C18 UNL     1      -1.813   6.845  13.079  1.00  0.00    -0.030 C 
HETATM   10  C19 UNL     1      -2.465   8.096  13.664  1.00  0.00     0.142 C 
HETATM   11  C20 UNL     1      -1.605   8.591  14.821  1.00  0.00     0.018 C 
HETATM   12  C21 UNL     1      -0.331   8.868  14.487  1.00  0.00     0.014 C 
HETATM   13  C22 UNL     1      -0.033   8.598  13.028  1.00  0.00     0.127 C 
HETATM   14  C23 UNL     1       1.384   9.026  12.612  1.00  0.00     0.078 C 
HETATM   15  C24 UNL     1       1.823   8.479  11.236  1.00  0.00     0.128 C 
HETATM   16  C31 UNL     1       0.644   7.976  10.403  1.00  0.00     0.033 C 
HETATM   17  C32 UNL     1      -0.196   6.906  11.110  1.00  0.00     0.020 C 
HETATM   18  C33 UNL     1      -0.352   7.109  12.643  1.00  0.00     0.021 C 
HETATM   19  C34 UNL     1       0.554   6.118  13.418  1.00  0.00     0.024 C 
HETATM   20  O7  UNL     1      -0.960   9.471  12.318  1.00  0.00    -0.223 OA
HETATM   21  O8  UNL     1      -2.379   9.110  12.623  1.00  0.00    -0.219 OA
ENDROOT
BRANCH  15  22
HETATM   22  O1  UNL     1       2.739   7.403  11.482  1.00  0.00    -0.353 OA
BRANCH  22  23
HETATM   23  C25 UNL     1       4.099   7.826  11.685  1.00  0.00     0.292 C 
HETATM   24  O2  UNL     1       4.913   7.411  10.597  1.00  0.00    -0.348 OA
HETATM   25  C26 UNL     1       6.298   7.154  10.883  1.00  0.00     0.179 C 
HETATM   26  C28 UNL     1       6.830   7.877  12.138  1.00  0.00     0.180 C 
HETATM   27  C29 UNL     1       5.954   7.630  13.375  1.00  0.00     0.183 C 
HETATM   28  C30 UNL     1       4.536   7.186  13.013  1.00  0.00     0.204 C 
BRANCH  25  29
HETATM   29  C27 UNL     1       6.545   5.640  10.897  1.00  0.00     0.198 C 
BRANCH  29  30
HETATM   30  O3  UNL     1       5.505   4.932  10.242  1.00  0.00    -0.398 OA
HETATM   31  H39 UNL     1       5.786   4.008  10.145  1.00  0.00     0.209 HD
ENDBRANCH  29  30
ENDBRANCH  25  29
BRANCH  26  32
HETATM   32  O4  UNL     1       6.813   9.290  11.854  1.00  0.00    -0.390 OA
HETATM   33  H41 UNL     1       7.304   9.737  12.570  1.00  0.00     0.210 HD
ENDBRANCH  26  32
BRANCH  27  34
HETATM   34  O5  UNL     1       6.546   6.645  14.235  1.00  0.00    -0.390 OA
HETATM   35  H43 UNL     1       5.909   6.521  14.965  1.00  0.00     0.210 HD
ENDBRANCH  27  34
BRANCH  28  36
HETATM   36  O6  UNL     1       3.664   7.522  14.101  1.00  0.00    -0.388 OA
HETATM   37  H45 UNL     1       2.760   7.302  13.791  1.00  0.00     0.210 HD
ENDBRANCH  28  36
ENDBRANCH  22  23
ENDBRANCH  15  22
BRANCH   1  38
HETATM   38  C8  UNL     1      -6.853   6.197  15.568  1.00  0.00     0.008 C 
HETATM   39  C9  UNL     1      -7.492   4.801  15.442  1.00  0.00     0.014 C 
BRANCH  38  40
HETATM   40  C7  UNL     1      -7.963   7.187  15.853  1.00  0.00    -0.026 C 
HETATM   41  C6  UNL     1      -8.893   7.538  14.944  1.00  0.00    -0.026 C 
BRANCH  41  42
HETATM   42  C4  UNL     1     -10.015   8.559  15.074  1.00  0.00     0.007 C 
HETATM   43  C5  UNL     1     -10.169   8.901  16.564  1.00  0.00     0.014 C 
BRANCH  42  44
HETATM   44  C2  UNL     1     -11.368   8.192  14.392  1.00  0.00    -0.015 C 
HETATM   45  C1  UNL     1     -11.489   6.682  14.159  1.00  0.00     0.010 C 
HETATM   46  C3  UNL     1     -11.610   8.924  13.066  1.00  0.00     0.010 C 
ENDBRANCH  42  44
ENDBRANCH  41  42
ENDBRANCH  38  40
ENDBRANCH   1  38
TORSDOF 11
ENDMDL
