MODEL 1
REMARK minimizedAffinity -7.49629641
REMARK  7 active torsions:
REMARK  status: ('A' for Active; 'I' for Inactive)
REMARK    1  A    between atoms: N1_2  and  C2_3 
REMARK    2  A    between atoms: C2_3  and  C3_4 
REMARK    3  A    between atoms: C3_4  and  O1_5 
REMARK    4  A    between atoms: O1_5  and  C4_6 
REMARK    5  A    between atoms: C4_6  and  C5_8 
REMARK    6  A    between atoms: C19_23  and  C21_25 
REMARK    7  A    between atoms: C21_25  and  O5_27 
ROOT
HETATM    1  C5  UNL     1      -2.626  49.532 -26.436  1.00  0.00     0.085 C 
HETATM    2  C6  UNL     1      -2.575  50.449 -25.448  1.00  0.00    -0.070 C 
HETATM    3  C7  UNL     1      -1.364  51.343 -25.312  1.00  0.00     0.035 C 
HETATM    4  C8  UNL     1      -0.729  51.139 -23.937  1.00  0.00     0.010 C 
HETATM    5  C9  UNL     1      -1.723  51.339 -22.766  1.00  0.00     0.006 C 
HETATM    6  C10 UNL     1      -3.002  50.493 -22.979  1.00  0.00     0.068 C 
HETATM    7  C11 UNL     1      -4.018  50.796 -21.884  1.00  0.00     0.132 C 
HETATM    8  O3  UNL     1      -5.214  50.527 -22.004  1.00  0.00    -0.298 OA
HETATM    9  C12 UNL     1      -3.497  51.428 -20.612  1.00  0.00     0.085 C 
HETATM   10  C13 UNL     1      -2.164  50.755 -20.241  1.00  0.00     0.019 C 
HETATM   11  C14 UNL     1      -1.068  51.134 -21.323  1.00  0.00    -0.034 C 
HETATM   12  C15 UNL     1      -0.002  50.011 -21.360  1.00  0.00     0.016 C 
HETATM   13  C16 UNL     1      -0.368  52.475 -20.963  1.00  0.00     0.010 C 
HETATM   14  C17 UNL     1       0.109  52.568 -19.523  1.00  0.00     0.002 C 
HETATM   15  C18 UNL     1      -1.043  52.348 -18.555  1.00  0.00     0.020 C 
HETATM   16  C19 UNL     1      -1.741  50.984 -18.736  1.00  0.00     0.049 C 
HETATM   17  C20 UNL     1      -2.939  50.947 -17.756  1.00  0.00     0.026 C 
HETATM   18  C23 UNL     1      -3.636  50.688 -24.382  1.00  0.00     0.022 C 
HETATM   19  C24 UNL     1      -4.287  52.067 -24.598  1.00  0.00     0.015 C 
ENDROOT
BRANCH   1  20
HETATM   20  C4  UNL     1      -3.669  48.517 -26.698  1.00  0.00     0.283 C 
HETATM   21  O2  UNL     1      -4.485  48.184 -25.853  1.00  0.00    -0.260 OA
BRANCH  20  22
HETATM   22  O1  UNL     1      -3.651  48.133 -27.994  1.00  0.00    -0.316 OA
BRANCH  22  23
HETATM   23  C3  UNL     1      -4.770  48.562 -28.787  1.00  0.00     0.209 C 
BRANCH  23  24
HETATM   24  C2  UNL     1      -6.044  47.771 -28.451  1.00  0.00     0.295 C 
BRANCH  24  25
HETATM   25  N1  UNL     1      -7.306  48.429 -28.832  1.00  0.00     0.081 N 
HETATM   26  C1  UNL     1      -7.516  48.457 -30.273  1.00  0.00     0.306 C 
HETATM   27  H4  UNL     1      -7.281  49.389 -28.488  1.00  0.00     0.315 HD
ENDBRANCH  24  25
ENDBRANCH  23  24
ENDBRANCH  22  23
ENDBRANCH  20  22
ENDBRANCH   1  20
BRANCH  16  28
HETATM   28  C21 UNL     1      -0.822  49.855 -18.222  1.00  0.00     0.267 C 
HETATM   29  O4  UNL     1      -0.985  48.662 -18.445  1.00  0.00    -0.264 OA
BRANCH  28  30
HETATM   30  O5  UNL     1       0.231  50.361 -17.518  1.00  0.00    -0.326 OA
HETATM   31  C22 UNL     1       0.463  49.718 -16.264  1.00  0.00     0.213 C 
ENDBRANCH  28  30
ENDBRANCH  16  28
TORSDOF 7
ENDMDL
