MODEL 1
REMARK minimizedAffinity -9.88824081
REMARK  5 active torsions:
REMARK  status: ('A' for Active; 'I' for Inactive)
REMARK    1  A    between atoms: C3_3  and  C4_4 
REMARK    2  A    between atoms: C4_4  and  O1_5 
REMARK    3  A    between atoms: C6_9  and  C7_10 
REMARK    4  A    between atoms: C20_24  and  O5_25 
REMARK    5  A    between atoms: C21_26  and  O6_27 
ROOT
HETATM    1  C7  UNL     1       6.576  66.488 -36.993  1.00  0.00     0.089 C 
HETATM    2  C8  UNL     1       7.627  66.855 -38.062  1.00  0.00     0.049 C 
HETATM    3  O4  UNL     1       5.225  66.427 -37.552  1.00  0.00    -0.365 OA
HETATM    4  C9  UNL     1       4.392  67.356 -36.774  1.00  0.00     0.074 C 
HETATM    5  C10 UNL     1       4.259  66.760 -35.351  1.00  0.00     0.040 C 
HETATM    6  C11 UNL     1       5.641  67.065 -34.736  1.00  0.00     0.011 C 
HETATM    7  C12 UNL     1       6.410  67.640 -35.953  1.00  0.00     0.034 C 
HETATM    8  C13 UNL     1       5.315  68.565 -36.590  1.00  0.00    -0.006 C 
HETATM    9  C14 UNL     1       4.824  69.676 -35.624  1.00  0.00     0.019 C 
HETATM   10  C15 UNL     1       5.556  69.244 -37.959  1.00  0.00     0.013 C 
HETATM   11  C16 UNL     1       4.236  69.585 -38.679  1.00  0.00     0.007 C 
HETATM   12  C17 UNL     1       3.357  68.324 -38.901  1.00  0.00     0.011 C 
HETATM   13  C18 UNL     1       3.078  67.653 -37.513  1.00  0.00     0.029 C 
HETATM   14  C19 UNL     1       2.216  66.388 -37.652  1.00  0.00     0.043 C 
HETATM   15  C20 UNL     1       0.918  66.640 -38.425  1.00  0.00     0.154 C 
HETATM   16  C21 UNL     1       1.205  67.261 -39.812  1.00  0.00     0.098 C 
HETATM   17  C22 UNL     1      -0.095  67.439 -40.624  1.00  0.00     0.042 C 
HETATM   18  C23 UNL     1       0.196  67.930 -42.044  1.00  0.00     0.010 C 
HETATM   19  C24 UNL     1       1.088  69.161 -42.073  1.00  0.00     0.079 C 
HETATM   20  C25 UNL     1       2.301  69.011 -41.168  1.00  0.00     0.138 C 
HETATM   21  O7  UNL     1       3.418  69.300 -41.596  1.00  0.00    -0.297 OA
HETATM   22  C26 UNL     1       2.027  68.596 -39.705  1.00  0.00     0.054 C 
HETATM   23  C27 UNL     1       1.250  69.772 -39.063  1.00  0.00     0.027 C 
ENDROOT
BRANCH   1  24
HETATM   24  C6  UNL     1       6.912  65.061 -36.447  1.00  0.00     0.170 C 
HETATM   25  O3  UNL     1       6.271  64.861 -35.174  1.00  0.00    -0.309 OA
HETATM   26  C5  UNL     1       6.536  63.729 -34.470  1.00  0.00     0.292 C 
HETATM   27  C3  UNL     1       7.703  62.909 -34.900  1.00  0.00     0.042 C 
HETATM   28  O2  UNL     1       5.850  63.404 -33.507  1.00  0.00    -0.260 OA
HETATM   29  C2  UNL     1       8.619  63.421 -35.749  1.00  0.00    -0.067 C 
HETATM   30  C1  UNL     1       9.886  62.732 -36.170  1.00  0.00     0.044 C 
HETATM   31  C28 UNL     1       8.417  64.798 -36.329  1.00  0.00     0.070 C 
BRANCH  27  32
HETATM   32  C4  UNL     1       7.755  61.542 -34.287  1.00  0.00     0.209 C 
BRANCH  32  33
HETATM   33  O1  UNL     1       8.238  61.632 -32.955  1.00  0.00    -0.396 OA
HETATM   34  H6  UNL     1       7.465  61.832 -32.393  1.00  0.00     0.209 HD
ENDBRANCH  32  33
ENDBRANCH  27  32
ENDBRANCH   1  24
BRANCH  15  35
HETATM   35  O5  UNL     1       0.035  67.453 -37.656  1.00  0.00    -0.392 OA
HETATM   36  H28 UNL     1      -0.147  66.983 -36.822  1.00  0.00     0.210 HD
ENDBRANCH  15  35
BRANCH  16  37
HETATM   37  O6  UNL     1       2.010  66.299 -40.535  1.00  0.00    -0.386 OA
HETATM   38  H29 UNL     1       1.495  65.480 -40.641  1.00  0.00     0.210 HD
ENDBRANCH  16  37
TORSDOF 5
ENDMDL
