MODEL 1
REMARK minimizedAffinity -8.60075188
REMARK  11 active torsions:
REMARK  status: ('A' for Active; 'I' for Inactive)
REMARK    1  A    between atoms: C2_2  and  C3_3 
REMARK    2  A    between atoms: C2_2  and  C4_5 
REMARK    3  A    between atoms: C3_3  and  O1_4 
REMARK    4  A    between atoms: C13_14  and  C14_15 
REMARK    5  A    between atoms: C14_15  and  C16_17 
REMARK    6  A    between atoms: C16_17  and  C17_18 
REMARK    7  A    between atoms: C17_18  and  C18_19 
REMARK    8  A    between atoms: C27_28  and  C28_29 
REMARK    9  A    between atoms: C28_29  and  C29_30 
REMARK   10  A    between atoms: C29_30  and  C30_31 
REMARK   11  A    between atoms: C30_31  and  O3_33 
ROOT
HETATM    1  C4  UNL     1       0.260  51.714 -21.178  1.00  0.00     0.025 C 
HETATM    2  C5  UNL     1       0.517  50.281 -20.678  1.00  0.00     0.010 C 
HETATM    3  C6  UNL     1      -0.624  49.276 -20.850  1.00  0.00     0.007 C 
HETATM    4  C7  UNL     1      -1.986  49.834 -21.311  1.00  0.00     0.004 C 
HETATM    5  C8  UNL     1      -1.794  50.719 -22.563  1.00  0.00    -0.027 A 
HETATM    6  C9  UNL     1      -2.306  50.126 -23.875  1.00  0.00     0.011 C 
HETATM    7  C10 UNL     1      -3.741  49.545 -23.819  1.00  0.00     0.011 C 
HETATM    8  C11 UNL     1      -4.254  49.266 -22.396  1.00  0.00    -0.032 C 
HETATM    9  C12 UNL     1      -4.887  50.569 -21.838  1.00  0.00     0.016 C 
HETATM   10  C13 UNL     1      -5.294  48.108 -22.264  1.00  0.00    -0.002 C 
HETATM   11  C22 UNL     1      -5.153  47.679 -20.779  1.00  0.00     0.006 C 
HETATM   12  C23 UNL     1      -3.800  48.236 -20.275  1.00  0.00     0.011 C 
HETATM   13  C24 UNL     1      -3.058  48.707 -21.542  1.00  0.00    -0.032 C 
HETATM   14  C25 UNL     1      -2.396  47.415 -22.141  1.00  0.00     0.016 C 
HETATM   15  C26 UNL     1      -1.962  52.224 -22.467  1.00  0.00     0.022 A 
HETATM   16  C27 UNL     1      -0.560  51.672 -22.496  1.00  0.00    -0.024 A 
ENDROOT
BRANCH  10  17
HETATM   17  C14 UNL     1      -6.744  48.297 -22.813  1.00  0.00    -0.014 C 
HETATM   18  C15 UNL     1      -7.131  49.782 -22.669  1.00  0.00     0.010 C 
BRANCH  17  19
HETATM   19  C16 UNL     1      -6.984  47.841 -24.274  1.00  0.00     0.008 C 
BRANCH  19  20
HETATM   20  C17 UNL     1      -5.794  48.022 -25.237  1.00  0.00     0.028 C 
BRANCH  20  21
HETATM   21  C18 UNL     1      -6.146  47.801 -26.683  1.00  0.00    -0.025 C 
HETATM   22  C19 UNL     1      -5.362  47.984 -27.766  1.00  0.00    -0.091 C 
HETATM   23  C20 UNL     1      -5.901  47.717 -29.150  1.00  0.00     0.042 C 
HETATM   24  C21 UNL     1      -3.929  48.442 -27.750  1.00  0.00     0.042 C 
ENDBRANCH  20  21
ENDBRANCH  19  20
ENDBRANCH  17  19
ENDBRANCH  10  17
BRANCH  16  25
HETATM   25  C28 UNL     1       0.284  51.856 -23.755  1.00  0.00     0.021 C 
BRANCH  25  26
HETATM   26  C29 UNL     1       0.634  53.319 -24.030  1.00  0.00     0.111 C 
BRANCH  26  27
HETATM   27  C30 UNL     1      -0.141  53.850 -25.203  1.00  0.00     0.139 C 
HETATM   28  O2  UNL     1      -1.046  53.305 -25.812  1.00  0.00    -0.650 OA
BRANCH  27  29
HETATM   29  O3  UNL     1       0.279  55.080 -25.567  1.00  0.00    -0.776 OA
HETATM   30  H48 UNL     1      -0.285  55.296 -26.338  1.00  0.00     0.167 HD
ENDBRANCH  27  29
ENDBRANCH  26  27
ENDBRANCH  25  26
ENDBRANCH  16  25
BRANCH   1  31
HETATM   31  C2  UNL     1      -0.187  52.704 -20.087  1.00  0.00    -0.061 C 
HETATM   32  C1  UNL     1      -0.928  52.369 -19.013  1.00  0.00     0.017 C 
BRANCH  31  33
HETATM   33  C3  UNL     1       0.341  54.114 -20.210  1.00  0.00     0.198 C 
BRANCH  33  34
HETATM   34  O1  UNL     1       1.743  54.125 -20.010  1.00  0.00    -0.397 OA
HETATM   35  H5  UNL     1       2.032  55.049 -20.095  1.00  0.00     0.209 HD
ENDBRANCH  33  34
ENDBRANCH  31  33
ENDBRANCH   1  31
TORSDOF 11
ENDMDL
