MODEL 1
REMARK minimizedAffinity -6.35775948
REMARK  8 active torsions:
REMARK  status: ('A' for Active; 'I' for Inactive)
REMARK    1  A    between atoms: P1_2  and  O2_3 
REMARK    2  A    between atoms: P1_2  and  O3_4 
REMARK    3  A    between atoms: P1_2  and  C1_5 
REMARK    4  A    between atoms: C1_5  and  C2_6 
REMARK    5  A    between atoms: C1_5  and  P2_14 
REMARK    6  A    between atoms: C2_6  and  C3_7 
REMARK    7  A    between atoms: P2_14  and  O5_16 
REMARK    8  A    between atoms: P2_14  and  O6_17 
ROOT
HETATM    1  C1  UNL     1      -5.923   3.653  12.173  1.00  0.00     0.214 C 
ENDROOT
BRANCH   1   2
HETATM    2  P1  UNL     1      -7.456   3.493  13.089  1.00  0.00     0.252 P 
HETATM    3  O1  UNL     1      -7.450   3.495  14.577  1.00  0.00    -0.653 OA
BRANCH   2   4
HETATM    4  O2  UNL     1      -8.125   2.130  12.554  1.00  0.00    -0.328 OA
HETATM    5  H1  UNL     1      -8.853   1.831  13.131  1.00  0.00     0.220 HD
ENDBRANCH   2   4
BRANCH   2   6
HETATM    6  O3  UNL     1      -8.491   4.557  12.489  1.00  0.00    -0.328 OA
HETATM    7  H2  UNL     1      -9.275   4.685  13.056  1.00  0.00     0.220 HD
ENDBRANCH   2   6
ENDBRANCH   1   2
BRANCH   1   8
HETATM    8  C2  UNL     1      -4.793   4.124  13.100  1.00  0.00     0.085 C 
BRANCH   8   9
HETATM    9  C3  UNL     1      -4.755   5.627  13.217  1.00  0.00     0.010 A 
HETATM   10  C4  UNL     1      -3.585   6.331  12.951  1.00  0.00     0.025 A 
HETATM   11  C5  UNL     1      -3.593   7.718  13.070  1.00  0.00     0.003 A 
HETATM   12  C6  UNL     1      -4.763   8.363  13.446  1.00  0.00     0.017 A 
HETATM   13  C7  UNL     1      -5.884   7.591  13.690  1.00  0.00     0.088 A 
HETATM   14  N1  UNL     1      -5.909   6.238  13.587  1.00  0.00    -0.369 N 
ATOM     15  H1  UNL     1      -6.757   5.705  13.779  1.00  0.00     0.165 HD
ENDBRANCH   8   9
ENDBRANCH   1   8
BRANCH   1  16
HETATM   16  P2  UNL     1      -5.457   2.234  11.176  1.00  0.00     0.252 P 
HETATM   17  O4  UNL     1      -6.150   0.949  11.475  1.00  0.00    -0.653 OA
BRANCH  16  18
HETATM   18  O5  UNL     1      -3.863   2.112  11.290  1.00  0.00    -0.328 OA
HETATM   19  H10 UNL     1      -3.556   1.296  10.846  1.00  0.00     0.220 HD
ENDBRANCH  16  18
BRANCH  16  20
HETATM   20  O6  UNL     1      -5.586   2.653   9.633  1.00  0.00    -0.328 OA
HETATM   21  H11 UNL     1      -5.694   3.622   9.468  1.00  0.00     0.220 HD
ENDBRANCH  16  20
ENDBRANCH   1  16
TORSDOF 8
ENDMDL
