MODEL 1
REMARK minimizedAffinity -7.99888229
REMARK CNNscore 0.167953372
REMARK CNNaffinity 7.13894272
REMARK  9 active torsions:
REMARK  status: ('A' for Active; 'I' for Inactive)
REMARK    1  A    between atoms: C13_13  and  S1_14 
REMARK    2  A    between atoms: C25_30  and  O5_31 
REMARK    3  A    between atoms: C31_37  and  C32_38 
REMARK    4  A    between atoms: C32_38  and  O6_39 
REMARK    5  A    between atoms: C40_47  and  C41_48 
REMARK    6  A    between atoms: C40_47  and  N1_56 
REMARK    7  A    between atoms: C41_48  and  C42_49 
REMARK    8  A    between atoms: C42_49  and  C43_50 
REMARK    9  A    between atoms: C43_50  and  O7_51 
REMARK       I    between atoms: C48_58  and  N2_59 
REMARK       I    between atoms: C48_58  and  N3_60 
ROOT
HETATM    1  C1  UNL     1       0.965  57.183  -2.322  1.00  0.00     0.010 C 
HETATM    2  C2  UNL     1       2.156  56.241  -2.364  1.00  0.00    -0.010 C 
HETATM    3  C3  UNL     1       1.841  54.945  -1.569  1.00  0.00     0.009 C 
HETATM    4  C4  UNL     1       2.707  53.729  -1.926  1.00  0.00     0.039 C 
HETATM    5  C5  UNL     1       4.011  54.106  -2.573  1.00  0.00    -0.049 C 
HETATM    6  C6  UNL     1       5.126  53.275  -2.468  1.00  0.00     0.044 C 
HETATM    7  C7  UNL     1       6.295  53.619  -3.140  1.00  0.00     0.073 C 
HETATM    8  C8  UNL     1       6.437  54.902  -3.678  1.00  0.00     0.037 C 
HETATM    9  C9  UNL     1       5.307  55.698  -3.864  1.00  0.00     0.011 C 
HETATM   10  C10 UNL     1       4.070  55.247  -3.400  1.00  0.00    -0.047 C 
HETATM   11  C11 UNL     1       2.766  55.957  -3.774  1.00  0.00     0.024 C 
HETATM   12  C12 UNL     1       1.935  55.023  -4.711  1.00  0.00     0.033 C 
HETATM   13  C13 UNL     1       1.326  55.450  -6.068  1.00  0.00     0.140 C 
HETATM   14  C14 UNL     1       2.043  55.401  -7.465  1.00  0.00     0.050 C 
HETATM   15  C15 UNL     1       1.132  54.722  -8.494  1.00  0.00    -0.013 C 
HETATM   16  C16 UNL     1       1.338  54.945  -9.809  1.00  0.00    -0.050 C 
HETATM   17  C17 UNL     1       2.583  55.711 -10.170  1.00  0.00     0.043 C 
HETATM   18  C18 UNL     1       3.708  54.929  -9.486  1.00  0.00     0.013 C 
HETATM   19  C19 UNL     1       3.797  53.405  -9.966  1.00  0.00     0.039 C 
HETATM   20  C20 UNL     1       2.943  52.992 -11.201  1.00  0.00     0.130 C 
HETATM   21  O4  UNL     1       1.586  52.882 -10.760  1.00  0.00    -0.371 OA
HETATM   22  C21 UNL     1       0.818  54.083 -10.912  1.00  0.00     0.185 C 
HETATM   23  C22 UNL     1      -0.652  53.708 -11.045  1.00  0.00    -0.006 A 
HETATM   24  C23 UNL     1      -1.664  54.333 -10.297  1.00  0.00     0.014 A 
HETATM   25  C24 UNL     1      -3.008  54.001 -10.501  1.00  0.00     0.037 A 
HETATM   26  C25 UNL     1      -3.350  53.059 -11.467  1.00  0.00     0.067 A 
HETATM   27  C26 UNL     1      -2.377  52.436 -12.240  1.00  0.00     0.057 A 
HETATM   28  C27 UNL     1      -1.035  52.754 -12.028  1.00  0.00     0.029 A 
HETATM   29  C28 UNL     1      -0.011  52.090 -12.797  1.00  0.00    -0.066 C 
HETATM   30  C29 UNL     1       1.068  51.671 -13.132  1.00  0.00    -0.101 C 
HETATM   31  C30 UNL     1       2.526  51.400 -13.209  1.00  0.00     0.103 C 
HETATM   32  C31 UNL     1       3.289  51.620 -11.851  1.00  0.00     0.049 C 
HETATM   33  C33 UNL     1       3.564  55.131  -7.886  1.00  0.00     0.102 A 
HETATM   34  C34 UNL     1       4.591  54.250  -7.206  1.00  0.00     0.081 A 
HETATM   35  C35 UNL     1       5.942  54.627  -7.360  1.00  0.00     0.006 C 
HETATM   36  C36 UNL     1       6.971  53.949  -6.712  1.00  0.00     0.010 C 
HETATM   37  C37 UNL     1       6.691  52.899  -5.824  1.00  0.00    -0.003 C 
HETATM   38  C38 UNL     1       5.361  52.418  -5.812  1.00  0.00     0.010 C 
HETATM   39  C39 UNL     1       4.325  53.082  -6.501  1.00  0.00     0.006 C 
HETATM   40  C40 UNL     1       7.752  52.527  -4.726  1.00  0.00     0.170 C 
HETATM   41  O8  UNL     1       7.165  52.572  -3.388  1.00  0.00    -0.316 OA
HETATM   42 NA1  UNL     1       3.967  53.138  -6.366  1.00  0.00    -0.223 Na
ENDROOT
BRANCH  40  43
HETATM   43  C41 UNL     1       8.289  51.078  -5.018  1.00  0.00     0.070 C 
BRANCH  43  44
HETATM   44  C42 UNL     1       7.589  50.172  -6.047  1.00  0.00     0.043 C 
BRANCH  44  45
HETATM   45  C43 UNL     1       8.411  49.750  -7.282  1.00  0.00     0.058 C 
HETATM   46  C44 UNL     1       8.204  48.314  -7.760  1.00  0.00     0.038 C 
HETATM   47  C45 UNL     1       9.427  48.029  -8.628  1.00  0.00     0.003 C 
HETATM   48  C46 UNL     1      10.548  48.917  -8.082  1.00  0.00     0.003 C 
HETATM   49  C47 UNL     1       9.917  49.771  -6.982  1.00  0.00     0.038 C 
BRANCH  45  50
HETATM   50  O7  UNL     1       8.175  50.620  -8.394  1.00  0.00    -0.390 OA
HETATM   51  H44 UNL     1       7.898  51.490  -8.039  1.00  0.00     0.210 HD
ENDBRANCH  45  50
ENDBRANCH  44  45
ENDBRANCH  43  44
ENDBRANCH  40  43
BRANCH  40  52
HETATM   52  N1  UNL     1       8.976  53.365  -4.908  1.00  0.00    -0.336 N 
HETATM   53  C48 UNL     1       9.848  53.475  -3.986  1.00  0.00     0.124 C 
HETATM   54  N2  UNL     1       9.862  52.980  -2.732  1.00  0.00    -0.279 NA
HETATM   55  N3  UNL     1      10.957  54.216  -4.202  1.00  0.00    -0.279 NA
HETATM   56  H53 UNL     1       9.083  52.362  -2.511  1.00  0.00     0.126 HD
HETATM   57  H54 UNL     1      10.748  52.577  -2.457  1.00  0.00     0.126 HD
HETATM   58  H55 UNL     1      10.839  54.772  -5.044  1.00  0.00     0.126 HD
HETATM   59  H56 UNL     1      11.164  54.809  -3.410  1.00  0.00     0.126 HD
ATOM     60  H1  UNL     1       9.116  53.859  -5.789  1.00  0.00     0.165 HD
ENDBRANCH  40  52
BRANCH  13  61
HETATM   61  S1  UNL     1       0.326  56.975  -5.939  1.00  0.00     0.106 S 
HETATM   62  O1  UNL     1      -0.644  56.668  -4.892  1.00  0.00    -0.595 OA
HETATM   63  O2  UNL     1      -0.294  57.149  -7.254  1.00  0.00    -0.595 OA
HETATM   64  O3  UNL     1       1.312  58.006  -5.608  1.00  0.00    -0.595 OA
ENDBRANCH  13  61
BRANCH  32  65
HETATM   65  C32 UNL     1       3.018  50.442 -10.900  1.00  0.00     0.172 C 
BRANCH  65  66
HETATM   66  O6  UNL     1       3.736  49.287 -11.344  1.00  0.00    -0.400 OA
HETATM   67  H34 UNL     1       4.669  49.402 -11.070  1.00  0.00     0.209 HD
ENDBRANCH  65  66
ENDBRANCH  32  65
BRANCH  26  68
HETATM   68  O5  UNL     1      -4.657  52.725 -11.689  1.00  0.00    -0.361 OA
HETATM   69  H27 UNL     1      -5.180  53.079 -10.946  1.00  0.00     0.217 HD
ENDBRANCH  26  68
TORSDOF 9
ENDMDL
