MODEL 1
REMARK minimizedAffinity -7.27909946
REMARK CNNscore 0.628460109
REMARK CNNaffinity 6.1733489
REMARK  10 active torsions:
REMARK  status: ('A' for Active; 'I' for Inactive)
REMARK    1  A    between atoms: C2_2  and  C3_3 
REMARK    2  A    between atoms: C2_2  and  C4_6 
REMARK    3  A    between atoms: C3_3  and  O2_5 
REMARK    4  A    between atoms: C4_6  and  C5_8 
REMARK    5  A    between atoms: C5_8  and  O4_9 
REMARK    6  A    between atoms: C5_8  and  C6_10 
REMARK    7  A    between atoms: C6_10  and  C7_11 
REMARK    8  A    between atoms: C7_11  and  C9_13 
REMARK    9  A    between atoms: C11_15  and  O5_16 
REMARK   10  A    between atoms: C30_37  and  O8_38 
ROOT
HETATM    1  C9  UNL     1      10.470  11.302  15.867  1.00  0.00     0.001 C 
HETATM    2  C10 UNL     1      10.131  10.335  17.042  1.00  0.00     0.038 C 
HETATM    3  C11 UNL     1       9.037   9.370  16.550  1.00  0.00     0.132 C 
HETATM    4  C12 UNL     1       9.039   9.528  15.008  1.00  0.00     0.017 C 
HETATM    5  C13 UNL     1      10.191   8.656  14.409  1.00  0.00     0.023 C 
HETATM    6  C14 UNL     1       7.766   9.167  14.232  1.00  0.00    -0.029 C 
HETATM    7  C15 UNL     1       7.486   9.769  13.049  1.00  0.00     0.002 C 
HETATM    8  C16 UNL     1       8.552  10.683  12.479  1.00  0.00     0.157 C 
HETATM    9  O6  UNL     1       8.658  10.819  11.259  1.00  0.00    -0.293 OA
HETATM   10  C17 UNL     1       9.522  11.410  13.412  1.00  0.00     0.094 C 
HETATM   11  C18 UNL     1       9.268  11.089  14.890  1.00  0.00    -0.019 C 
HETATM   12  C19 UNL     1       8.055  11.944  15.379  1.00  0.00     0.017 C 
HETATM   13  C20 UNL     1       6.182   9.560  12.246  1.00  0.00    -0.008 C 
HETATM   14  C21 UNL     1       5.640  10.951  11.819  1.00  0.00     0.021 C 
HETATM   15  C22 UNL     1       6.495   8.719  10.977  1.00  0.00     0.022 C 
HETATM   16  C23 UNL     1       5.358   7.842  10.461  1.00  0.00     0.080 C 
HETATM   17  C24 UNL     1       4.006   8.357  10.880  1.00  0.00     0.135 C 
HETATM   18  O7  UNL     1       3.132   8.591  10.045  1.00  0.00    -0.297 OA
HETATM   19  C25 UNL     1       3.752   8.476  12.384  1.00  0.00     0.018 C 
HETATM   20  C26 UNL     1       2.674   9.558  12.640  1.00  0.00     0.023 C 
HETATM   21  C27 UNL     1       3.124   7.135  12.822  1.00  0.00     0.023 C 
HETATM   22  C28 UNL     1       5.085   8.851  13.143  1.00  0.00     0.016 C 
HETATM   23  C29 UNL     1       5.737   7.669  13.886  1.00  0.00     0.043 C 
HETATM   24  C30 UNL     1       6.834   8.150  14.836  1.00  0.00     0.149 C 
ENDROOT
BRANCH   1  25
HETATM   25  C7  UNL     1      10.841  12.732  16.381  1.00  0.00    -0.011 C 
HETATM   26  C8  UNL     1      11.743  13.475  15.398  1.00  0.00     0.010 C 
BRANCH  25  27
HETATM   27  C6  UNL     1      11.520  12.629  17.781  1.00  0.00     0.044 C 
BRANCH  27  28
HETATM   28  C5  UNL     1      12.483  11.450  18.030  1.00  0.00     0.188 C 
BRANCH  28  29
HETATM   29  C4  UNL     1      13.917  11.678  17.497  1.00  0.00     0.169 C 
HETATM   30  O3  UNL     1      14.250  11.311  16.361  1.00  0.00    -0.294 OA
BRANCH  29  31
HETATM   31  C2  UNL     1      14.945  12.351  18.393  1.00  0.00     0.152 C 
HETATM   32  C1  UNL     1      15.809  13.327  17.593  1.00  0.00     0.029 C 
BRANCH  31  33
HETATM   33  C3  UNL     1      14.395  13.012  19.626  1.00  0.00     0.150 C 
HETATM   34  O1  UNL     1      13.856  14.109  19.676  1.00  0.00    -0.649 OA
BRANCH  33  35
HETATM   35  O2  UNL     1      14.615  12.340  20.772  1.00  0.00    -0.776 OA
HETATM   36  H5  UNL     1      14.292  12.957  21.465  1.00  0.00     0.167 HD
ENDBRANCH  33  35
ENDBRANCH  31  33
ENDBRANCH  29  31
ENDBRANCH  28  29
BRANCH  28  37
HETATM   37  O4  UNL     1      12.418  11.070  19.392  1.00  0.00    -0.388 OA
HETATM   38  H7  UNL     1      12.023  10.179  19.431  1.00  0.00     0.210 HD
ENDBRANCH  28  37
ENDBRANCH  27  28
ENDBRANCH  25  27
ENDBRANCH   1  25
BRANCH   3  39
HETATM   39  O5  UNL     1       9.324   8.059  17.006  1.00  0.00    -0.394 OA
HETATM   40  H18 UNL     1       8.690   7.459  16.553  1.00  0.00     0.210 HD
ENDBRANCH   3  39
BRANCH  24  41
HETATM   41  O8  UNL     1       7.573   7.013  15.265  1.00  0.00    -0.391 OA
HETATM   42  H44 UNL     1       7.943   6.590  14.469  1.00  0.00     0.210 HD
ENDBRANCH  24  41
TORSDOF 10
ENDMDL
