MODEL 1
REMARK minimizedAffinity -7.10000658
REMARK CNNscore 0.70042932
REMARK CNNaffinity 6.92914629
REMARK  7 active torsions:
REMARK  status: ('A' for Active; 'I' for Inactive)
REMARK    1  A    between atoms: C4_4  and  C5_5 
REMARK    2  A    between atoms: C5_5  and  C6_6 
REMARK    3  A    between atoms: C6_6  and  C7_7 
REMARK    4  A    between atoms: C7_7  and  C9_9 
REMARK    5  A    between atoms: C22_22  and  O1_23 
REMARK    6  A    between atoms: C23_24  and  O2_25 
REMARK    7  A    between atoms: C24_26  and  O3_27 
ROOT
HETATM    1  C9  UNL     1      -2.142   7.108  13.038  1.00  0.00    -0.002 C 
HETATM    2  C10 UNL     1      -2.896   6.195  14.046  1.00  0.00     0.007 C 
HETATM    3  C11 UNL     1      -3.324   7.060  15.244  1.00  0.00     0.015 C 
HETATM    4  C12 UNL     1      -3.143   8.507  14.764  1.00  0.00    -0.013 C 
HETATM    5  C13 UNL     1      -4.420   8.883  13.949  1.00  0.00     0.021 C 
HETATM    6  C14 UNL     1      -2.996   9.613  15.804  1.00  0.00    -0.068 C 
HETATM    7  C15 UNL     1      -2.312  10.744  15.494  1.00  0.00    -0.065 C 
HETATM    8  C16 UNL     1      -1.594  10.898  14.150  1.00  0.00     0.036 C 
HETATM    9  C17 UNL     1      -1.620   9.697  13.178  1.00  0.00     0.015 C 
HETATM   10  C18 UNL     1      -1.822   8.365  13.914  1.00  0.00    -0.029 C 
HETATM   11  C19 UNL     1      -0.560   8.079  14.790  1.00  0.00     0.016 C 
HETATM   12  C20 UNL     1      -2.176  11.918  16.499  1.00  0.00     0.012 C 
HETATM   13  C21 UNL     1      -0.795  11.726  17.184  1.00  0.00     0.023 C 
HETATM   14  C22 UNL     1      -2.203  13.323  15.814  1.00  0.00     0.162 C 
HETATM   15  C23 UNL     1      -2.119  14.469  16.833  1.00  0.00     0.177 C 
HETATM   16  C24 UNL     1      -3.240  14.389  17.875  1.00  0.00     0.153 C 
HETATM   17  C25 UNL     1      -3.295  13.023  18.585  1.00  0.00     0.018 C 
HETATM   18  C26 UNL     1      -4.489  13.000  19.554  1.00  0.00     0.013 C 
HETATM   19  C27 UNL     1      -3.358  11.871  17.539  1.00  0.00     0.007 C 
HETATM   20  C28 UNL     1      -3.447  10.480  18.178  1.00  0.00     0.010 C 
HETATM   21  C29 UNL     1      -3.699   9.403  17.124  1.00  0.00     0.036 C 
ENDROOT
BRANCH   1  22
HETATM   22  C7  UNL     1      -0.988   6.366  12.292  1.00  0.00    -0.014 C 
HETATM   23  C8  UNL     1      -0.346   5.279  13.170  1.00  0.00     0.010 C 
BRANCH  22  24
HETATM   24  C6  UNL     1       0.159   7.318  11.840  1.00  0.00     0.008 C 
BRANCH  24  25
HETATM   25  C5  UNL     1       0.337   7.463  10.324  1.00  0.00     0.028 C 
BRANCH  25  26
HETATM   26  C4  UNL     1       1.415   6.541   9.818  1.00  0.00    -0.025 C 
HETATM   27  C2  UNL     1       2.061   6.583   8.636  1.00  0.00    -0.091 C 
HETATM   28  C1  UNL     1       1.840   7.603   7.553  1.00  0.00     0.042 C 
HETATM   29  C3  UNL     1       3.106   5.550   8.301  1.00  0.00     0.042 C 
ENDBRANCH  25  26
ENDBRANCH  24  25
ENDBRANCH  22  24
ENDBRANCH   1  22
BRANCH  14  30
HETATM   30  O1  UNL     1      -3.406  13.496  15.045  1.00  0.00    -0.392 OA
HETATM   31  H35 UNL     1      -3.507  14.457  14.900  1.00  0.00     0.210 HD
ENDBRANCH  14  30
BRANCH  15  32
HETATM   32  O2  UNL     1      -2.247  15.729  16.139  1.00  0.00    -0.390 OA
HETATM   33  H37 UNL     1      -1.426  15.854  15.628  1.00  0.00     0.210 HD
ENDBRANCH  15  32
BRANCH  16  34
HETATM   34  O3  UNL     1      -3.018  15.428  18.839  1.00  0.00    -0.393 OA
HETATM   35  H39 UNL     1      -2.960  16.250  18.316  1.00  0.00     0.210 HD
ENDBRANCH  16  34
TORSDOF 7
ENDMDL
