MODEL 1
REMARK minimizedAffinity -7.7506752
REMARK CNNscore 0.885050714
REMARK CNNaffinity 6.8304019
REMARK  8 active torsions:
REMARK  status: ('A' for Active; 'I' for Inactive)
REMARK    1  A    between atoms: C2_2  and  C30_34 
REMARK    2  A    between atoms: C3_3  and  C4_4 
REMARK    3  A    between atoms: C4_4  and  O1_5 
REMARK    4  A    between atoms: C4_4  and  C5_6 
REMARK    5  A    between atoms: C5_6  and  C6_7 
REMARK    6  A    between atoms: C6_7  and  C8_9 
REMARK    7  A    between atoms: C10_11  and  O2_12 
REMARK    8  A    between atoms: C30_34  and  O6_36 
ROOT
HETATM    1  C8  UNL     1      -1.980  52.189 -10.908  1.00  0.00     0.001 C 
HETATM    2  C9  UNL     1      -1.217  52.435 -12.246  1.00  0.00     0.038 C 
HETATM    3  C10 UNL     1       0.059  53.230 -11.907  1.00  0.00     0.131 C 
HETATM    4  C11 UNL     1       0.215  53.080 -10.370  1.00  0.00     0.014 C 
HETATM    5  C12 UNL     1       0.890  51.705 -10.066  1.00  0.00     0.023 C 
HETATM    6  C13 UNL     1       1.047  54.104  -9.597  1.00  0.00    -0.058 C 
HETATM    7  C14 UNL     1       0.822  54.337  -8.279  1.00  0.00    -0.000 C 
HETATM    8  C15 UNL     1      -0.360  53.648  -7.611  1.00  0.00     0.157 C 
HETATM    9  O3  UNL     1      -0.523  53.711  -6.392  1.00  0.00    -0.293 OA
HETATM   10  C16 UNL     1      -1.365  52.855  -8.441  1.00  0.00     0.094 C 
HETATM   11  C17 UNL     1      -1.291  53.195  -9.929  1.00  0.00    -0.019 C 
HETATM   12  C18 UNL     1      -1.895  54.620 -10.137  1.00  0.00     0.017 C 
HETATM   13  C19 UNL     1       1.705  55.278  -7.418  1.00  0.00    -0.008 C 
HETATM   14  C20 UNL     1       0.854  56.544  -7.151  1.00  0.00     0.021 C 
HETATM   15  C21 UNL     1       2.089  54.629  -6.048  1.00  0.00     0.022 C 
HETATM   16  C22 UNL     1       3.430  55.056  -5.454  1.00  0.00     0.080 C 
HETATM   17  C23 UNL     1       3.846  56.429  -5.919  1.00  0.00     0.135 C 
HETATM   18  O4  UNL     1       4.125  57.313  -5.110  1.00  0.00    -0.297 OA
HETATM   19  C24 UNL     1       3.991  56.621  -7.432  1.00  0.00     0.018 C 
HETATM   20  C25 UNL     1       3.737  58.094  -7.802  1.00  0.00     0.023 C 
HETATM   21  C26 UNL     1       5.467  56.312  -7.771  1.00  0.00     0.023 C 
HETATM   22  C27 UNL     1       3.055  55.600  -8.165  1.00  0.00     0.014 C 
HETATM   23  C28 UNL     1       2.804  55.949  -9.636  1.00  0.00     0.011 C 
HETATM   24  C29 UNL     1       2.160  54.775 -10.365  1.00  0.00     0.036 C 
ENDROOT
BRANCH   1  25
HETATM   25  C6  UNL     1      -3.531  52.208 -11.098  1.00  0.00    -0.011 C 
HETATM   26  C7  UNL     1      -3.914  53.236 -12.176  1.00  0.00     0.010 C 
BRANCH  25  27
HETATM   27  C5  UNL     1      -4.093  50.797 -11.420  1.00  0.00     0.040 C 
BRANCH  27  28
HETATM   28  C4  UNL     1      -4.467  49.924 -10.206  1.00  0.00     0.142 C 
BRANCH  28  29
HETATM   29  C3  UNL     1      -5.944  49.965  -9.934  1.00  0.00     0.018 C 
HETATM   30  C2  UNL     1      -6.894  49.184 -10.490  1.00  0.00     0.010 C 
HETATM   31  C1  UNL     1      -6.660  48.072 -11.467  1.00  0.00     0.055 C 
BRANCH  30  32
HETATM   32  C30 UNL     1      -8.291  49.439 -10.054  1.00  0.00     0.171 C 
HETATM   33  O5  UNL     1      -8.643  50.028  -9.047  1.00  0.00    -0.646 OA
BRANCH  32  34
HETATM   34  O6  UNL     1      -9.196  48.940 -10.914  1.00  0.00    -0.773 OA
HETATM   35  H44 UNL     1     -10.055  49.169 -10.503  1.00  0.00     0.167 HD
ENDBRANCH  32  34
ENDBRANCH  30  32
ENDBRANCH  28  29
BRANCH  28  36
HETATM   36  O1  UNL     1      -3.816  50.420  -9.042  1.00  0.00    -0.392 OA
HETATM   37  H6  UNL     1      -4.278  51.226  -8.755  1.00  0.00     0.210 HD
ENDBRANCH  28  36
ENDBRANCH  27  28
ENDBRANCH  25  27
ENDBRANCH   1  25
BRANCH   3  38
HETATM   38  O2  UNL     1       1.173  52.778 -12.660  1.00  0.00    -0.394 OA
HETATM   39  H17 UNL     1       1.190  51.806 -12.649  1.00  0.00     0.210 HD
ENDBRANCH   3  38
TORSDOF 8
ENDMDL
