MODEL 1
REMARK minimizedAffinity -8.89038754
REMARK  6 active torsions:
REMARK  status: ('A' for Active; 'I' for Inactive)
REMARK    1  A    between atoms: C4_4  and  C5_5 
REMARK    2  A    between atoms: C5_5  and  C6_6 
REMARK    3  A    between atoms: C6_6  and  C7_7 
REMARK    4  A    between atoms: C7_7  and  C9_9 
REMARK    5  A    between atoms: C17_17  and  C18_18 
REMARK    6  A    between atoms: C18_18  and  O1_21 
ROOT
HETATM    1  C9  UNL     1      -3.504  50.501 -25.420  1.00  0.00    -0.002 C 
HETATM    2  C10 UNL     1      -3.677  52.026 -25.168  1.00  0.00     0.006 C 
HETATM    3  C11 UNL     1      -3.681  52.218 -23.625  1.00  0.00     0.011 C 
HETATM    4  C12 UNL     1      -3.854  50.789 -23.061  1.00  0.00    -0.032 C 
HETATM    5  C13 UNL     1      -5.387  50.493 -23.184  1.00  0.00     0.016 C 
HETATM    6  C14 UNL     1      -3.351  50.551 -21.606  1.00  0.00     0.003 C 
HETATM    7  C15 UNL     1      -4.062  51.371 -20.529  1.00  0.00     0.009 C 
HETATM    8  C16 UNL     1      -3.190  51.411 -19.278  1.00  0.00     0.042 C 
HETATM    9  C17 UNL     1      -2.742  50.030 -18.710  1.00  0.00     0.095 C 
HETATM   10  O2  UNL     1      -3.937  49.524 -18.068  1.00  0.00    -0.377 OA
HETATM   11  C21 UNL     1      -3.805  48.278 -17.395  1.00  0.00     0.169 C 
HETATM   12  C22 UNL     1      -3.243  47.161 -18.258  1.00  0.00     0.027 C 
HETATM   13  C23 UNL     1      -2.171  47.584 -19.261  1.00  0.00     0.010 C 
HETATM   14  C24 UNL     1      -2.344  49.005 -19.847  1.00  0.00     0.032 C 
HETATM   15  C25 UNL     1      -3.255  49.038 -21.170  1.00  0.00    -0.033 C 
HETATM   16  C26 UNL     1      -4.634  48.386 -20.909  1.00  0.00     0.016 C 
HETATM   17  C27 UNL     1      -2.581  48.183 -22.311  1.00  0.00     0.011 C 
HETATM   18  C28 UNL     1      -3.041  48.492 -23.758  1.00  0.00     0.011 C 
HETATM   19  C29 UNL     1      -2.927  49.992 -24.069  1.00  0.00    -0.032 C 
HETATM   20  C30 UNL     1      -1.414  50.363 -23.976  1.00  0.00     0.016 C 
ENDROOT
BRANCH   1  21
HETATM   21  C7  UNL     1      -2.941  50.047 -26.793  1.00  0.00    -0.014 C 
HETATM   22  C8  UNL     1      -3.875  48.980 -27.397  1.00  0.00     0.010 C 
BRANCH  21  23
HETATM   23  C6  UNL     1      -2.544  51.056 -27.892  1.00  0.00     0.008 C 
BRANCH  23  24
HETATM   24  C5  UNL     1      -1.548  52.157 -27.523  1.00  0.00     0.028 C 
BRANCH  24  25
HETATM   25  C4  UNL     1      -0.158  51.608 -27.337  1.00  0.00    -0.025 C 
HETATM   26  C2  UNL     1       0.762  51.994 -26.433  1.00  0.00    -0.091 C 
HETATM   27  C1  UNL     1       0.539  53.034 -25.368  1.00  0.00     0.042 C 
HETATM   28  C3  UNL     1       2.121  51.343 -26.398  1.00  0.00     0.042 C 
ENDBRANCH  24  25
ENDBRANCH  23  24
ENDBRANCH  21  23
ENDBRANCH   1  21
BRANCH   9  29
HETATM   29  C18 UNL     1      -1.567  50.308 -17.625  1.00  0.00     0.082 C 
HETATM   30  C19 UNL     1      -0.704  51.526 -18.017  1.00  0.00     0.049 C 
HETATM   31  C20 UNL     1      -0.641  49.096 -17.392  1.00  0.00     0.049 C 
BRANCH  29  32
HETATM   32  O1  UNL     1      -2.105  50.604 -16.324  1.00  0.00    -0.388 OA
HETATM   33  H35 UNL     1      -1.366  50.803 -15.725  1.00  0.00     0.210 HD
ENDBRANCH  29  32
ENDBRANCH   9  29
TORSDOF 6
ENDMDL
