MODEL 1
REMARK minimizedAffinity -10.2845583
REMARK  4 active torsions:
REMARK  status: ('A' for Active; 'I' for Inactive)
REMARK    1  A    between atoms: C4_4  and  C5_5 
REMARK    2  A    between atoms: C5_5  and  C6_6 
REMARK    3  A    between atoms: C6_6  and  C7_7 
REMARK    4  A    between atoms: C7_7  and  C9_9 
ROOT
HETATM    1  C9  UNL     1      -0.886  49.942 -19.648  1.00  0.00    -0.002 C 
HETATM    2  C10 UNL     1      -2.445  49.836 -19.596  1.00  0.00     0.006 C 
HETATM    3  C11 UNL     1      -3.018  50.687 -20.747  1.00  0.00     0.011 C 
HETATM    4  C12 UNL     1      -1.810  50.980 -21.645  1.00  0.00    -0.032 C 
HETATM    5  C13 UNL     1      -1.609  49.707 -22.526  1.00  0.00     0.016 C 
HETATM    6  C14 UNL     1      -1.912  52.240 -22.554  1.00  0.00     0.004 C 
HETATM    7  C15 UNL     1      -3.124  52.306 -23.489  1.00  0.00     0.007 C 
HETATM    8  C16 UNL     1      -3.015  51.663 -24.868  1.00  0.00     0.007 C 
HETATM    9  C17 UNL     1      -1.616  51.416 -25.464  1.00  0.00     0.010 C 
HETATM   10  C18 UNL     1      -1.523  51.666 -27.012  1.00  0.00     0.018 C 
HETATM   11  C19 UNL     1      -2.454  50.699 -27.765  1.00  0.00     0.023 C 
HETATM   12  C20 UNL     1      -1.852  53.114 -27.423  1.00  0.00     0.023 C 
HETATM   13  C21 UNL     1      -0.090  51.378 -27.489  1.00  0.00     0.135 C 
HETATM   14  O1  UNL     1       0.277  51.619 -28.642  1.00  0.00    -0.297 OA
HETATM   15  C22 UNL     1       0.848  50.727 -26.506  1.00  0.00     0.080 C 
HETATM   16  C23 UNL     1       0.923  51.551 -25.230  1.00  0.00     0.018 C 
HETATM   17  C24 UNL     1      -0.433  52.065 -24.743  1.00  0.00    -0.026 A 
HETATM   18  C25 UNL     1      -0.519  53.526 -24.356  1.00  0.00     0.021 A 
HETATM   19  C26 UNL     1      -0.573  52.477 -23.267  1.00  0.00    -0.027 A 
HETATM   20  C27 UNL     1       0.638  52.486 -22.323  1.00  0.00     0.011 C 
HETATM   21  C28 UNL     1       0.663  51.323 -21.311  1.00  0.00     0.011 C 
HETATM   22  C29 UNL     1      -0.675  51.197 -20.557  1.00  0.00    -0.032 C 
HETATM   23  C30 UNL     1      -0.864  52.472 -19.675  1.00  0.00     0.016 C 
ENDROOT
BRANCH   1  24
HETATM   24  C7  UNL     1      -0.256  49.876 -18.221  1.00  0.00    -0.014 C 
HETATM   25  C8  UNL     1      -1.082  49.010 -17.264  1.00  0.00     0.010 C 
BRANCH  24  26
HETATM   26  C6  UNL     1      -0.104  51.314 -17.646  1.00  0.00     0.008 C 
BRANCH  26  27
HETATM   27  C5  UNL     1       0.708  51.459 -16.352  1.00  0.00     0.028 C 
BRANCH  27  28
HETATM   28  C4  UNL     1       2.018  52.176 -16.532  1.00  0.00    -0.025 C 
HETATM   29  C2  UNL     1       3.105  52.090 -15.739  1.00  0.00    -0.091 C 
HETATM   30  C1  UNL     1       3.174  51.298 -14.464  1.00  0.00     0.042 C 
HETATM   31  C3  UNL     1       4.373  52.824 -16.087  1.00  0.00     0.042 C 
ENDBRANCH  27  28
ENDBRANCH  26  27
ENDBRANCH  24  26
ENDBRANCH   1  24
TORSDOF 4
ENDMDL
