MODEL 1
REMARK minimizedAffinity -8.99103165
REMARK CNNscore 0.649130881
REMARK CNNaffinity 7.19096136
REMARK  8 active torsions:
REMARK  status: ('A' for Active; 'I' for Inactive)
REMARK    1  A    between atoms: O1_2  and  C2_3 
REMARK    2  A    between atoms: C2_3  and  C3_4 
REMARK    3  A    between atoms: C7_8  and  C8_9 
REMARK    4  A    between atoms: C8_9  and  C9_10 
REMARK    5  A    between atoms: C8_9  and  C10_12 
REMARK    6  A    between atoms: C9_10  and  O2_11 
REMARK    7  A    between atoms: C19_21  and  S1_22 
REMARK    8  A    between atoms: S1_22  and  O5_25 
ROOT
HETATM    1  C10 UNL     1      -3.329   6.438  13.364  1.00  0.00     0.003 C 
HETATM    2  C11 UNL     1      -2.773   5.022  13.536  1.00  0.00     0.006 C 
HETATM    3  C12 UNL     1      -1.790   4.862  12.370  1.00  0.00     0.006 C 
HETATM    4  C13 UNL     1      -1.571   6.280  11.780  1.00  0.00    -0.001 C 
HETATM    5  C14 UNL     1      -0.145   6.496  11.237  1.00  0.00    -0.001 C 
HETATM    6  C15 UNL     1      -0.144   7.476  10.051  1.00  0.00     0.033 C 
HETATM    7  C16 UNL     1       1.231   7.872   9.625  1.00  0.00    -0.022 C 
HETATM    8  C17 UNL     1       2.205   8.088  10.519  1.00  0.00    -0.066 C 
HETATM    9  C18 UNL     1       3.580   8.549  10.108  1.00  0.00     0.057 C 
HETATM   10  C19 UNL     1       4.648   7.538  10.533  1.00  0.00     0.132 C 
HETATM   11  C20 UNL     1       4.288   6.765  11.800  1.00  0.00     0.101 C 
HETATM   12  C21 UNL     1       3.314   7.541  12.662  1.00  0.00     0.141 C 
HETATM   13  O6  UNL     1       3.578   7.774  13.842  1.00  0.00    -0.297 OA
HETATM   14  C22 UNL     1       1.954   7.929  12.020  1.00  0.00     0.044 C 
HETATM   15  C23 UNL     1       1.521   9.294  12.579  1.00  0.00     0.029 C 
HETATM   16  C24 UNL     1       0.938   6.764  12.317  1.00  0.00     0.010 C 
HETATM   17  C25 UNL     1       0.379   6.737  13.747  1.00  0.00     0.007 C 
HETATM   18  C26 UNL     1      -0.959   7.442  13.973  1.00  0.00     0.010 C 
HETATM   19  C27 UNL     1      -2.063   7.240  12.899  1.00  0.00    -0.036 C 
HETATM   20  C28 UNL     1      -2.511   8.607  12.357  1.00  0.00     0.016 C 
ENDROOT
BRANCH   1  21
HETATM   21  C8  UNL     1      -4.314   6.969  14.465  1.00  0.00     0.044 C 
BRANCH  21  22
HETATM   22  C7  UNL     1      -5.798   6.826  13.979  1.00  0.00     0.142 C 
HETATM   23  C6  UNL     1      -6.273   5.401  13.695  1.00  0.00     0.067 C 
HETATM   24  C4  UNL     1      -7.760   5.386  13.445  1.00  0.00    -0.067 C 
HETATM   25  C3  UNL     1      -8.556   6.351  13.961  1.00  0.00     0.043 C 
HETATM   26  C5  UNL     1      -8.242   4.235  12.607  1.00  0.00     0.044 C 
HETATM   27  C29 UNL     1      -7.984   7.331  14.921  1.00  0.00     0.292 C 
HETATM   28  O7  UNL     1      -6.635   7.392  15.017  1.00  0.00    -0.311 OA
HETATM   29  O8  UNL     1      -8.700   8.025  15.633  1.00  0.00    -0.260 OA
BRANCH  25  30
HETATM   30  C2  UNL     1     -10.035   6.535  13.734  1.00  0.00     0.212 C 
BRANCH  30  31
HETATM   31  O1  UNL     1     -10.321   7.865  13.289  1.00  0.00    -0.391 OA
HETATM   32  C1  UNL     1     -11.707   8.162  13.391  1.00  0.00     0.201 C 
ENDBRANCH  30  31
ENDBRANCH  25  30
ENDBRANCH  21  22
BRANCH  21  33
HETATM   33  C9  UNL     1      -4.097   6.405  15.871  1.00  0.00     0.171 C 
BRANCH  33  34
HETATM   34  O2  UNL     1      -3.114   7.145  16.586  1.00  0.00    -0.400 OA
HETATM   35  H15 UNL     1      -2.249   6.959  16.176  1.00  0.00     0.209 HD
ENDBRANCH  33  34
ENDBRANCH  21  33
ENDBRANCH   1  21
BRANCH  10  36
HETATM   36  S1  UNL     1       6.218   8.397  10.697  1.00  0.00     0.099 S 
HETATM   37  O3  UNL     1       7.300   7.495  10.377  1.00  0.00    -0.601 OA
HETATM   38  O4  UNL     1       6.134   9.719  10.127  1.00  0.00    -0.601 OA
BRANCH  36  39
HETATM   39  O5  UNL     1       6.228   8.579  12.301  1.00  0.00    -0.295 OA
HETATM   40  H29 UNL     1       6.934   9.218  12.539  1.00  0.00     0.232 HD
ENDBRANCH  36  39
ENDBRANCH  10  36
TORSDOF 8
ENDMDL
