MODEL 1
REMARK minimizedAffinity -9.67188263
REMARK  12 active torsions:
REMARK  status: ('A' for Active; 'I' for Inactive)
REMARK    1  A    between atoms: C2_2  and  C3_3 
REMARK    2  A    between atoms: C2_2  and  C26_31 
REMARK    3  A    between atoms: C3_3  and  C4_4 
REMARK    4  A    between atoms: C4_4  and  C5_5 
REMARK    5  A    between atoms: C5_5  and  C7_7 
REMARK    6  A    between atoms: C8_8  and  O1_9 
REMARK    7  A    between atoms: C9_10  and  O2_11 
REMARK    8  A    between atoms: C20_22  and  O3_23 
REMARK    9  A    between atoms: C23_26  and  O4_27 
REMARK   10  A    between atoms: C25_29  and  O5_30 
REMARK   11  A    between atoms: C26_31  and  C28_33 
REMARK   12  A    between atoms: C28_33  and  O6_34 
ROOT
HETATM    1  C7  UNL     1      -2.226   7.450  13.845  1.00  0.00     0.029 C 
HETATM    2  C8  UNL     1      -1.866   7.849  15.313  1.00  0.00     0.152 C 
HETATM    3  C9  UNL     1      -0.326   8.007  15.366  1.00  0.00     0.155 C 
HETATM    4  C10 UNL     1       0.150   7.742  13.935  1.00  0.00     0.060 C 
HETATM    5  C11 UNL     1      -0.906   6.777  13.325  1.00  0.00    -0.029 C 
HETATM    6  C12 UNL     1      -0.793   5.314  13.814  1.00  0.00     0.016 C 
HETATM    7  C13 UNL     1      -0.729   6.811  11.786  1.00  0.00     0.011 C 
HETATM    8  C14 UNL     1       0.660   7.282  11.312  1.00  0.00     0.009 C 
HETATM    9  C15 UNL     1       1.825   6.833  12.227  1.00  0.00     0.029 C 
HETATM   10  C16 UNL     1       3.259   7.123  11.606  1.00  0.00    -0.031 C 
HETATM   11  C17 UNL     1       3.551   5.935  10.636  1.00  0.00     0.016 C 
HETATM   12  C18 UNL     1       3.325   8.439  10.780  1.00  0.00     0.012 C 
HETATM   13  C19 UNL     1       4.710   8.732  10.198  1.00  0.00     0.032 C 
HETATM   14  C20 UNL     1       5.813   8.709  11.248  1.00  0.00     0.118 C 
HETATM   15  C21 UNL     1       5.762   7.461  12.133  1.00  0.00     0.039 C 
HETATM   16  C22 UNL     1       4.362   7.161  12.714  1.00  0.00     0.025 C 
HETATM   17  C23 UNL     1       4.027   8.065  13.931  1.00  0.00     0.126 C 
HETATM   18  C24 UNL     1       2.559   8.453  14.062  1.00  0.00     0.071 C 
HETATM   19  C25 UNL     1       1.618   7.311  13.699  1.00  0.00     0.071 C 
ENDROOT
BRANCH   1  20
HETATM   20  C5  UNL     1      -3.581   6.692  13.701  1.00  0.00    -0.011 C 
HETATM   21  C6  UNL     1      -4.171   6.269  15.051  1.00  0.00     0.010 C 
BRANCH  20  22
HETATM   22  C4  UNL     1      -3.396   5.435  12.803  1.00  0.00     0.009 C 
BRANCH  22  23
HETATM   23  C3  UNL     1      -4.344   4.277  13.166  1.00  0.00     0.034 C 
BRANCH  23  24
HETATM   24  C2  UNL     1      -5.313   3.804  12.085  1.00  0.00    -0.083 C 
HETATM   25  C1  UNL     1      -4.910   3.215  10.942  1.00  0.00     0.015 C 
BRANCH  24  26
HETATM   26  C26 UNL     1      -6.795   4.031  12.433  1.00  0.00     0.033 C 
HETATM   27  C27 UNL     1      -7.119   5.414  13.022  1.00  0.00     0.017 C 
BRANCH  26  28
HETATM   28  C28 UNL     1      -7.365   2.922  13.346  1.00  0.00     0.172 C 
BRANCH  28  29
HETATM   29  O6  UNL     1      -8.038   1.898  12.624  1.00  0.00    -0.400 OA
HETATM   30  H48 UNL     1      -7.465   1.619  11.891  1.00  0.00     0.209 HD
ENDBRANCH  28  29
ENDBRANCH  26  28
ENDBRANCH  24  26
ENDBRANCH  23  24
ENDBRANCH  22  23
ENDBRANCH  20  22
ENDBRANCH   1  20
BRANCH   2  31
HETATM   31  O1  UNL     1      -2.242   6.868  16.283  1.00  0.00    -0.393 OA
HETATM   32  H13 UNL     1      -3.212   6.880  16.368  1.00  0.00     0.210 HD
ENDBRANCH   2  31
BRANCH   3  33
HETATM   33  O2  UNL     1       0.261   7.101  16.301  1.00  0.00    -0.392 OA
HETATM   34  H15 UNL     1      -0.511   6.679  16.745  1.00  0.00     0.210 HD
ENDBRANCH   3  33
BRANCH  19  35
HETATM   35  O5  UNL     1       1.970   6.210  14.548  1.00  0.00    -0.389 OA
HETATM   36  H41 UNL     1       1.530   6.366  15.415  1.00  0.00     0.210 HD
ENDBRANCH  19  35
BRANCH  17  37
HETATM   37  O4  UNL     1       4.788   9.272  13.950  1.00  0.00    -0.395 OA
HETATM   38  H38 UNL     1       4.656   9.682  14.823  1.00  0.00     0.210 HD
ENDBRANCH  17  37
BRANCH  14  39
HETATM   39  O3  UNL     1       7.073   8.754  10.576  1.00  0.00    -0.396 OA
HETATM   40  H33 UNL     1       7.755   8.798  11.268  1.00  0.00     0.210 HD
ENDBRANCH  14  39
TORSDOF 12
ENDMDL
