MODEL 1
REMARK minimizedAffinity -9.93011761
REMARK  5 active torsions:
REMARK  status: ('A' for Active; 'I' for Inactive)
REMARK    1  A    between atoms: C2_2  and  C3_3 
REMARK    2  A    between atoms: C2_2  and  C25_27 
REMARK    3  A    between atoms: C3_3  and  C4_4 
REMARK    4  A    between atoms: C4_4  and  C5_5 
REMARK    5  A    between atoms: C15_15  and  O1_16 
ROOT
HETATM    1  C5  UNL     1      -0.852   6.813  11.820  1.00  0.00    -0.023 C 
HETATM    2  C6  UNL     1      -1.847   6.088  12.357  1.00  0.00    -0.075 C 
HETATM    3  C7  UNL     1      -2.099   4.612  12.099  1.00  0.00     0.035 C 
HETATM    4  C8  UNL     1      -3.445   4.316  12.777  1.00  0.00     0.013 C 
HETATM    5  C9  UNL     1      -4.097   5.693  12.840  1.00  0.00     0.033 C 
HETATM    6  C10 UNL     1      -5.393   5.869  13.631  1.00  0.00     0.070 C 
HETATM    7  C11 UNL     1      -6.516   4.970  13.050  1.00  0.00     0.039 C 
HETATM    8  C12 UNL     1      -7.827   5.078  13.833  1.00  0.00     0.009 C 
HETATM    9  C13 UNL     1      -8.132   6.537  14.191  1.00  0.00    -0.001 C 
HETATM   10  C14 UNL     1      -9.341   6.669  15.118  1.00  0.00     0.037 C 
HETATM   11  C15 UNL     1      -9.781   8.134  15.229  1.00  0.00     0.118 C 
HETATM   12  C16 UNL     1      -8.647   9.135  14.974  1.00  0.00     0.032 C 
HETATM   13  C17 UNL     1      -7.300   8.605  15.463  1.00  0.00     0.015 C 
HETATM   14  C18 UNL     1      -6.883   7.278  14.784  1.00  0.00    -0.009 C 
HETATM   15  C19 UNL     1      -6.107   6.389  15.784  1.00  0.00     0.179 C 
HETATM   16  O2  UNL     1      -5.258   5.512  15.017  1.00  0.00    -0.379 OA
HETATM   17  C20 UNL     1      -5.840   7.352  13.647  1.00  0.00     0.032 C 
HETATM   18  C21 UNL     1      -4.688   8.360  13.880  1.00  0.00     0.009 C 
HETATM   19  C22 UNL     1      -3.420   8.065  13.064  1.00  0.00     0.014 C 
HETATM   20  C23 UNL     1      -2.942   6.619  13.277  1.00  0.00    -0.014 C 
HETATM   21  C24 UNL     1      -2.421   6.438  14.721  1.00  0.00     0.020 C 
ENDROOT
BRANCH   1  22
HETATM   22  C4  UNL     1       0.218   6.298  10.894  1.00  0.00     0.031 C 
BRANCH  22  23
HETATM   23  C3  UNL     1       1.153   7.427  10.445  1.00  0.00     0.037 C 
BRANCH  23  24
HETATM   24  C2  UNL     1       1.077   7.745   8.961  1.00  0.00    -0.086 C 
HETATM   25  C1  UNL     1      -0.010   8.365   8.466  1.00  0.00     0.014 C 
BRANCH  24  26
HETATM   26  C25 UNL     1       2.198   7.315   8.020  1.00  0.00     0.005 C 
HETATM   27  C26 UNL     1       2.893   6.035   8.494  1.00  0.00     0.014 C 
HETATM   28  C27 UNL     1       1.763   7.187   6.559  1.00  0.00     0.014 C 
ENDBRANCH  24  26
ENDBRANCH  23  24
ENDBRANCH  22  23
ENDBRANCH   1  22
BRANCH  11  29
HETATM   29  O1  UNL     1     -10.346   8.354  16.518  1.00  0.00    -0.396 OA
HETATM   30  H21 UNL     1      -9.648   8.230  17.183  1.00  0.00     0.210 HD
ENDBRANCH  11  29
TORSDOF 5
ENDMDL
