MODEL 1
REMARK minimizedAffinity -9.89507961
REMARK  8 active torsions:
REMARK  status: ('A' for Active; 'I' for Inactive)
REMARK    1  A    between atoms: C4_4  and  C5_5 
REMARK    2  A    between atoms: C5_5  and  C6_6 
REMARK    3  A    between atoms: C6_6  and  C7_7 
REMARK    4  A    between atoms: C7_7  and  C9_9 
REMARK    5  A    between atoms: C25_26  and  C27_28 
REMARK    6  A    between atoms: C27_28  and  O3_30 
REMARK    7  A    between atoms: C28_31  and  O4_32 
REMARK    8  A    between atoms: C30_34  and  O5_35 
ROOT
HETATM    1  C9  UNL     1      -1.485  49.044 -18.301  1.00  0.00    -0.002 C 
HETATM    2  C10 UNL     1      -2.645  48.099 -18.722  1.00  0.00     0.007 C 
HETATM    3  C11 UNL     1      -2.839  48.266 -20.244  1.00  0.00     0.015 C 
HETATM    4  C12 UNL     1      -1.605  49.061 -20.726  1.00  0.00    -0.005 C 
HETATM    5  C13 UNL     1      -0.458  48.026 -20.945  1.00  0.00     0.021 C 
HETATM    6  C14 UNL     1      -1.642  49.854 -22.027  1.00  0.00    -0.000 C 
HETATM    7  C15 UNL     1      -0.888  50.973 -22.199  1.00  0.00    -0.058 C 
HETATM    8  C16 UNL     1      -0.056  51.542 -21.037  1.00  0.00     0.036 C 
HETATM    9  C17 UNL     1      -0.101  50.792 -19.694  1.00  0.00     0.015 C 
HETATM   10  C18 UNL     1      -1.419  50.044 -19.496  1.00  0.00    -0.028 C 
HETATM   11  C19 UNL     1      -2.559  51.104 -19.404  1.00  0.00     0.016 C 
HETATM   12  C20 UNL     1      -0.848  51.790 -23.538  1.00  0.00     0.011 C 
HETATM   13  C21 UNL     1      -1.797  52.988 -23.279  1.00  0.00     0.023 C 
HETATM   14  C22 UNL     1      -1.325  50.875 -24.711  1.00  0.00     0.029 C 
HETATM   15  C23 UNL     1      -2.642  50.165 -24.391  1.00  0.00     0.090 C 
HETATM   16  C24 UNL     1      -2.499  49.335 -23.140  1.00  0.00     0.157 C 
HETATM   17  O1  UNL     1      -3.111  48.273 -23.039  1.00  0.00    -0.293 OA
HETATM   18  C25 UNL     1      -1.263  51.494 -26.158  1.00  0.00     0.072 C 
HETATM   19  C26 UNL     1      -0.899  50.316 -27.119  1.00  0.00     0.030 C 
HETATM   20  C28 UNL     1      -0.135  52.554 -26.302  1.00  0.00     0.139 C 
HETATM   21  C29 UNL     1       1.028  52.273 -25.359  1.00  0.00     0.065 C 
HETATM   22  C30 UNL     1       0.626  52.243 -23.872  1.00  0.00     0.133 C 
ENDROOT
BRANCH   1  23
HETATM   23  C7  UNL     1      -1.562  49.460 -16.801  1.00  0.00    -0.014 C 
HETATM   24  C8  UNL     1      -2.495  50.635 -16.474  1.00  0.00     0.010 C 
BRANCH  23  25
HETATM   25  C6  UNL     1      -0.195  49.713 -16.112  1.00  0.00     0.008 C 
BRANCH  25  26
HETATM   26  C5  UNL     1       0.098  51.174 -15.732  1.00  0.00     0.028 C 
BRANCH  26  27
HETATM   27  C4  UNL     1       1.394  51.706 -16.281  1.00  0.00    -0.025 C 
HETATM   28  C2  UNL     1       2.555  51.916 -15.628  1.00  0.00    -0.091 C 
HETATM   29  C1  UNL     1       2.777  51.670 -14.160  1.00  0.00     0.042 C 
HETATM   30  C3  UNL     1       3.768  52.444 -16.358  1.00  0.00     0.042 C 
ENDBRANCH  26  27
ENDBRANCH  25  26
ENDBRANCH  23  25
ENDBRANCH   1  23
BRANCH  22  31
HETATM   31  O5  UNL     1       0.923  53.523 -23.304  1.00  0.00    -0.394 OA
HETATM   32  H46 UNL     1       0.383  54.179 -23.785  1.00  0.00     0.210 HD
ENDBRANCH  22  31
BRANCH  18  33
HETATM   33  C27 UNL     1      -2.573  52.068 -26.706  1.00  0.00     0.151 C 
HETATM   34  O2  UNL     1      -3.276  52.903 -26.154  1.00  0.00    -0.649 OA
BRANCH  33  35
HETATM   35  O3  UNL     1      -2.952  51.561 -27.889  1.00  0.00    -0.776 OA
HETATM   36  H40 UNL     1      -3.819  51.989 -28.061  1.00  0.00     0.167 HD
ENDBRANCH  33  35
ENDBRANCH  18  33
BRANCH  20  37
HETATM   37  O4  UNL     1      -0.557  53.899 -26.058  1.00  0.00    -0.394 OA
HETATM   38  H42 UNL     1       0.098  54.471 -26.496  1.00  0.00     0.210 HD
ENDBRANCH  20  37
TORSDOF 8
ENDMDL
