MODEL 1
REMARK minimizedAffinity -9.52763367
REMARK  6 active torsions:
REMARK  status: ('A' for Active; 'I' for Inactive)
REMARK    1  A    between atoms: C2_2  and  C30_31 
REMARK    2  A    between atoms: C3_3  and  C4_4 
REMARK    3  A    between atoms: C4_4  and  C5_5 
REMARK    4  A    between atoms: C5_5  and  C6_6 
REMARK    5  A    between atoms: C6_6  and  C8_8 
REMARK    6  A    between atoms: C30_31  and  O3_33 
ROOT
HETATM    1  C8  UNL     1       1.025   6.832  11.968  1.00  0.00    -0.002 C 
HETATM    2  C9  UNL     1       1.223   5.294  11.955  1.00  0.00     0.007 C 
HETATM    3  C10 UNL     1      -0.174   4.664  12.107  1.00  0.00     0.015 C 
HETATM    4  C11 UNL     1      -0.958   5.697  12.942  1.00  0.00    -0.013 C 
HETATM    5  C12 UNL     1      -0.508   5.494  14.419  1.00  0.00     0.021 C 
HETATM    6  C13 UNL     1      -2.481   5.610  12.984  1.00  0.00    -0.070 C 
HETATM    7  C14 UNL     1      -3.136   4.436  12.917  1.00  0.00    -0.022 C 
HETATM    8  C15 UNL     1      -4.615   4.274  13.123  1.00  0.00     0.034 C 
HETATM    9  C16 UNL     1      -5.398   5.604  13.187  1.00  0.00     0.013 C 
HETATM   10  C17 UNL     1      -6.927   5.470  13.545  1.00  0.00     0.018 C 
HETATM   11  C18 UNL     1      -7.776   5.813  12.299  1.00  0.00     0.023 C 
HETATM   12  C19 UNL     1      -7.332   4.049  13.992  1.00  0.00     0.023 C 
HETATM   13  C20 UNL     1      -7.372   6.452  14.640  1.00  0.00     0.135 C 
HETATM   14  O1  UNL     1      -8.253   6.161  15.454  1.00  0.00    -0.297 OA
HETATM   15  C21 UNL     1      -6.797   7.848  14.660  1.00  0.00     0.080 C 
HETATM   16  C22 UNL     1      -5.449   7.982  13.973  1.00  0.00     0.017 C 
HETATM   17  C23 UNL     1      -4.602   6.690  13.995  1.00  0.00    -0.031 C 
HETATM   18  C24 UNL     1      -4.329   6.259  15.456  1.00  0.00     0.016 C 
HETATM   19  C25 UNL     1      -3.243   6.923  13.218  1.00  0.00     0.024 C 
HETATM   20  C26 UNL     1      -2.354   8.064  13.776  1.00  0.00     0.010 C 
HETATM   21  C27 UNL     1      -0.959   8.236  13.116  1.00  0.00     0.011 C 
HETATM   22  C28 UNL     1      -0.508   7.034  12.267  1.00  0.00    -0.029 C 
HETATM   23  C29 UNL     1      -1.134   7.237  10.833  1.00  0.00     0.016 C 
ENDROOT
BRANCH   1  24
HETATM   24  C6  UNL     1       2.098   7.668  12.726  1.00  0.00    -0.014 C 
HETATM   25  C7  UNL     1       2.146   7.479  14.246  1.00  0.00     0.010 C 
BRANCH  24  26
HETATM   26  C5  UNL     1       3.529   7.399  12.181  1.00  0.00     0.008 C 
BRANCH  26  27
HETATM   27  C4  UNL     1       3.763   7.938  10.764  1.00  0.00     0.028 C 
BRANCH  27  28
HETATM   28  C3  UNL     1       3.426   6.903   9.725  1.00  0.00    -0.013 C 
HETATM   29  C2  UNL     1       2.911   7.105   8.495  1.00  0.00     0.008 C 
HETATM   30  C1  UNL     1       2.658   5.974   7.543  1.00  0.00     0.055 C 
BRANCH  29  31
HETATM   31  C30 UNL     1       2.514   8.456   8.038  1.00  0.00     0.171 C 
HETATM   32  O2  UNL     1       3.213   9.282   7.485  1.00  0.00    -0.646 OA
BRANCH  31  33
HETATM   33  O3  UNL     1       1.223   8.708   8.316  1.00  0.00    -0.773 OA
HETATM   34  H46 UNL     1       1.084   9.609   7.959  1.00  0.00     0.167 HD
ENDBRANCH  31  33
ENDBRANCH  29  31
ENDBRANCH  27  28
ENDBRANCH  26  27
ENDBRANCH  24  26
ENDBRANCH   1  24
TORSDOF 6
ENDMDL
