MODEL 1
REMARK minimizedAffinity -7.75326014
REMARK CNNscore 0.599387646
REMARK CNNaffinity 6.48623896
REMARK  7 active torsions:
REMARK  status: ('A' for Active; 'I' for Inactive)
REMARK    1  A    between atoms: C2_2  and  C30_33 
REMARK    2  A    between atoms: C3_3  and  C4_4 
REMARK    3  A    between atoms: C4_4  and  C5_5 
REMARK    4  A    between atoms: C5_5  and  C6_6 
REMARK    5  A    between atoms: C6_6  and  C8_8 
REMARK    6  A    between atoms: C10_10  and  O1_11 
REMARK    7  A    between atoms: C30_33  and  O5_35 
ROOT
HETATM    1  C8  UNL     1      -1.321   7.694  13.703  1.00  0.00     0.001 C 
HETATM    2  C9  UNL     1      -1.557   6.672  14.845  1.00  0.00     0.038 C 
HETATM    3  C10 UNL     1      -2.031   7.483  16.077  1.00  0.00     0.131 C 
HETATM    4  C11 UNL     1      -2.419   8.876  15.505  1.00  0.00     0.014 C 
HETATM    5  C12 UNL     1      -3.870   8.779  14.924  1.00  0.00     0.023 C 
HETATM    6  C13 UNL     1      -2.459  10.113  16.404  1.00  0.00    -0.058 C 
HETATM    7  C14 UNL     1      -2.320  11.363  15.880  1.00  0.00    -0.000 C 
HETATM    8  C15 UNL     1      -1.855  11.511  14.431  1.00  0.00     0.157 C 
HETATM    9  O2  UNL     1      -1.650  12.625  13.949  1.00  0.00    -0.293 OA
HETATM   10  C16 UNL     1      -1.619  10.272  13.574  1.00  0.00     0.094 C 
HETATM   11  C17 UNL     1      -1.280   9.062  14.443  1.00  0.00    -0.019 C 
HETATM   12  C18 UNL     1       0.127   9.302  15.076  1.00  0.00     0.017 C 
HETATM   13  C19 UNL     1      -2.569  12.661  16.702  1.00  0.00    -0.008 C 
HETATM   14  C20 UNL     1      -1.168  13.244  17.004  1.00  0.00     0.021 C 
HETATM   15  C21 UNL     1      -3.397  13.731  15.911  1.00  0.00     0.022 C 
HETATM   16  C22 UNL     1      -4.698  14.178  16.565  1.00  0.00     0.080 C 
HETATM   17  C23 UNL     1      -4.497  14.535  18.017  1.00  0.00     0.135 C 
HETATM   18  O3  UNL     1      -4.930  15.602  18.468  1.00  0.00    -0.297 OA
HETATM   19  C24 UNL     1      -3.834  13.470  18.906  1.00  0.00     0.018 C 
HETATM   20  C25 UNL     1      -2.720  14.140  19.730  1.00  0.00     0.023 C 
HETATM   21  C26 UNL     1      -4.930  12.977  19.885  1.00  0.00     0.023 C 
HETATM   22  C27 UNL     1      -3.377  12.282  17.999  1.00  0.00     0.014 C 
HETATM   23  C28 UNL     1      -2.698  11.125  18.744  1.00  0.00     0.011 C 
HETATM   24  C29 UNL     1      -2.738   9.871  17.872  1.00  0.00     0.036 C 
ENDROOT
BRANCH   1  25
HETATM   25  C6  UNL     1      -0.193   7.355  12.684  1.00  0.00    -0.013 C 
HETATM   26  C7  UNL     1       0.214   8.647  11.946  1.00  0.00     0.010 C 
BRANCH  25  27
HETATM   27  C5  UNL     1      -0.544   6.271  11.639  1.00  0.00     0.008 C 
BRANCH  27  28
HETATM   28  C4  UNL     1       0.393   5.056  11.689  1.00  0.00     0.028 C 
BRANCH  28  29
HETATM   29  C3  UNL     1       1.834   5.486  11.739  1.00  0.00    -0.013 C 
HETATM   30  C2  UNL     1       2.574   5.990  10.729  1.00  0.00     0.008 C 
HETATM   31  C1  UNL     1       2.105   6.203   9.321  1.00  0.00     0.055 C 
BRANCH  30  32
HETATM   32  C30 UNL     1       3.987   6.400  10.950  1.00  0.00     0.171 C 
HETATM   33  O4  UNL     1       4.873   6.342  10.117  1.00  0.00    -0.646 OA
BRANCH  32  34
HETATM   34  O5  UNL     1       4.232   6.880  12.183  1.00  0.00    -0.773 OA
HETATM   35  H44 UNL     1       5.185   7.101  12.151  1.00  0.00     0.167 HD
ENDBRANCH  32  34
ENDBRANCH  30  32
ENDBRANCH  28  29
ENDBRANCH  27  28
ENDBRANCH  25  27
ENDBRANCH   1  25
BRANCH   3  36
HETATM   36  O1  UNL     1      -3.089   6.781  16.713  1.00  0.00    -0.394 OA
HETATM   37  H17 UNL     1      -3.351   7.273  17.508  1.00  0.00     0.210 HD
ENDBRANCH   3  36
TORSDOF 7
ENDMDL
