MODEL 1
REMARK minimizedAffinity -7.70916033
REMARK CNNscore 0.389991105
REMARK CNNaffinity 6.79906988
REMARK  21 active torsions:
REMARK  status: ('A' for Active; 'I' for Inactive)
REMARK    1  A    between atoms: C2_2  and  C3_3 
REMARK    2  A    between atoms: C2_2  and  C27_33 
REMARK    3  A    between atoms: C4_4  and  C5_5 
REMARK    4  A    between atoms: C6_6  and  C7_7 
REMARK    5  A    between atoms: C6_6  and  C10_12 
REMARK    6  A    between atoms: C7_7  and  O1_8 
REMARK    7  A    between atoms: O1_8  and  C8_9 
REMARK    8  A    between atoms: C8_9  and  C9_10 
REMARK    9  A    between atoms: C9_10  and  O2_11 
REMARK   10  A    between atoms: C14_16  and  O3_17 
REMARK   11  A    between atoms: C15_18  and  C16_19 
REMARK   12  A    between atoms: C16_19  and  C17_20 
REMARK   13  A    between atoms: C17_20  and  C18_21 
REMARK   14  A    between atoms: C18_21  and  O4_22 
REMARK   15  A    between atoms: C20_24  and  C22_26 
REMARK   16  A    between atoms: C25_30  and  O6_32 
REMARK   17  A    between atoms: C27_33  and  C28_34 
REMARK   18  A    between atoms: C28_34  and  C29_35 
REMARK   19  A    between atoms: C30_36  and  C32_38 
REMARK   20  A    between atoms: C32_38  and  N1_39 
REMARK   21  A    between atoms: N1_39  and  C33_40 
ROOT
HETATM    1  C10 UNL     1       0.935   6.320  12.274  1.00  0.00     0.046 C 
HETATM    2  C11 UNL     1       0.349   7.524  11.540  1.00  0.00     0.013 C 
HETATM    3  C12 UNL     1       1.568   8.231  10.925  1.00  0.00     0.017 C 
HETATM    4  C13 UNL     1       2.825   7.274  11.069  1.00  0.00     0.024 C 
HETATM    5  C14 UNL     1       2.113   5.911  11.365  1.00  0.00     0.138 C 
HETATM    6  C15 UNL     1       3.690   7.776  12.330  1.00  0.00     0.029 C 
HETATM    7  C19 UNL     1       4.197   9.216  12.093  1.00  0.00    -0.066 C 
HETATM    8  C20 UNL     1       3.945  10.265  12.919  1.00  0.00    -0.021 C 
HETATM    9  C21 UNL     1       4.378  11.688  12.700  1.00  0.00     0.052 C 
HETATM   10  C23 UNL     1       5.003   9.334  10.813  1.00  0.00     0.038 C 
HETATM   11  C24 UNL     1       4.281   8.765   9.591  1.00  0.00     0.042 C 
HETATM   12  C25 UNL     1       3.725   7.330   9.782  1.00  0.00     0.065 C 
HETATM   13  C26 UNL     1       3.069   6.908   8.450  1.00  0.00     0.047 C 
ENDROOT
BRANCH   1  14
HETATM   14  C6  UNL     1       0.012   5.222  12.795  1.00  0.00    -0.050 C 
HETATM   15  C5  UNL     1      -0.795   5.219  13.879  1.00  0.00     0.005 C 
BRANCH  15  16
HETATM   16  C4  UNL     1      -1.078   6.285  14.809  1.00  0.00     0.001 C 
HETATM   17  C3  UNL     1      -1.861   7.370  14.678  1.00  0.00     0.006 C 
BRANCH  17  18
HETATM   18  C2  UNL     1      -2.749   7.867  13.619  1.00  0.00    -0.067 C 
HETATM   19  C1  UNL     1      -2.470   9.081  13.105  1.00  0.00     0.019 C 
BRANCH  18  20
HETATM   20  C27 UNL     1      -3.928   7.031  13.149  1.00  0.00     0.041 C 
BRANCH  20  21
HETATM   21  C28 UNL     1      -4.533   5.968  14.089  1.00  0.00     0.032 C 
BRANCH  21  22
HETATM   22  C29 UNL     1      -5.931   5.557  13.705  1.00  0.00    -0.022 C 
HETATM   23  C30 UNL     1      -6.285   4.511  12.928  1.00  0.00    -0.060 C 
HETATM   24  C31 UNL     1      -5.297   3.611  12.231  1.00  0.00     0.045 C 
BRANCH  23  25
HETATM   25  C32 UNL     1      -7.745   4.202  12.658  1.00  0.00     0.303 C 
BRANCH  25  26
HETATM   26  N1  UNL     1      -8.612   4.992  13.528  1.00  0.00     0.086 N 
HETATM   27  H50 UNL     1      -9.295   4.385  13.973  1.00  0.00     0.316 HD
BRANCH  26  28
HETATM   28  C33 UNL     1      -9.304   6.067  12.819  1.00  0.00     0.265 C 
HETATM   29  C34 UNL     1      -9.112   6.008  11.309  1.00  0.00     0.037 C 
ENDBRANCH  26  28
ENDBRANCH  25  26
ENDBRANCH  23  25
ENDBRANCH  21  22
ENDBRANCH  20  21
ENDBRANCH  18  20
ENDBRANCH  17  18
ENDBRANCH  15  16
BRANCH  14  30
HETATM   30  C7  UNL     1       0.078   3.933  11.973  1.00  0.00     0.202 C 
BRANCH  30  31
HETATM   31  O1  UNL     1      -0.884   3.908  10.920  1.00  0.00    -0.385 OA
BRANCH  31  32
HETATM   32  C8  UNL     1      -1.776   2.787  10.972  1.00  0.00     0.194 C 
BRANCH  32  33
HETATM   33  C9  UNL     1      -0.950   1.500  10.930  1.00  0.00     0.190 C 
BRANCH  33  34
HETATM   34  O2  UNL     1      -0.951   0.959   9.608  1.00  0.00    -0.399 OA
HETATM   35  H12 UNL     1      -0.529   0.081   9.651  1.00  0.00     0.209 HD
ENDBRANCH  33  34
ENDBRANCH  32  33
ENDBRANCH  31  32
ENDBRANCH  30  31
ENDBRANCH  14  30
ENDBRANCH   1  14
BRANCH   5  36
HETATM   36  O3  UNL     1       1.592   5.307  10.183  1.00  0.00    -0.394 OA
HETATM   37  H19 UNL     1       1.214   4.451  10.449  1.00  0.00     0.210 HD
ENDBRANCH   5  36
BRANCH   6  38
HETATM   38  C16 UNL     1       4.914   6.965  12.855  1.00  0.00     0.012 C 
BRANCH  38  39
HETATM   39  C17 UNL     1       6.144   7.760  13.296  1.00  0.00     0.027 C 
BRANCH  39  40
HETATM   40  C18 UNL     1       6.372   7.682  14.802  1.00  0.00     0.164 C 
BRANCH  40  41
HETATM   41  O4  UNL     1       5.223   7.136  15.437  1.00  0.00    -0.401 OA
HETATM   42  H27 UNL     1       5.403   7.129  16.394  1.00  0.00     0.209 HD
ENDBRANCH  40  41
ENDBRANCH  39  40
ENDBRANCH  38  39
ENDBRANCH   6  38
BRANCH  12  43
HETATM   43  O6  UNL     1       4.839   6.440   9.959  1.00  0.00    -0.389 OA
HETATM   44  H39 UNL     1       5.350   6.432   9.131  1.00  0.00     0.210 HD
ENDBRANCH  12  43
BRANCH   8  45
HETATM   45  C22 UNL     1       3.201  10.083  14.209  1.00  0.00     0.265 C 
HETATM   46  O5  UNL     1       3.755   9.843  15.278  1.00  0.00    -0.302 OA
ENDBRANCH   8  45
TORSDOF 21
ENDMDL
