MODEL 1
REMARK minimizedAffinity -10.0251722
REMARK  11 active torsions:
REMARK  status: ('A' for Active; 'I' for Inactive)
REMARK    1  A    between atoms: C6_6  and  C8_8 
REMARK    2  A    between atoms: C8_8  and  O1_9 
REMARK    3  A    between atoms: O1_9  and  C9_10 
REMARK    4  A    between atoms: C10_12  and  C11_13 
REMARK    5  A    between atoms: C11_13  and  O3_14 
REMARK    6  A    between atoms: C12_15  and  O4_16 
REMARK    7  A    between atoms: C13_17  and  O5_18 
REMARK    8  A    between atoms: C14_19  and  O6_20 
REMARK    9  A    between atoms: C20_26  and  C21_27 
REMARK   10  A    between atoms: C21_27  and  C22_28 
REMARK   11  A    between atoms: C26_34  and  O9_35 
ROOT
HETATM    1  C1  UNL     1      -3.888   7.633  14.946  1.00  0.00     0.015 C 
HETATM    2  C2  UNL     1      -3.259   7.569  13.760  1.00  0.00    -0.084 C 
HETATM    3  C3  UNL     1      -2.644   8.823  13.192  1.00  0.00     0.034 C 
HETATM    4  C4  UNL     1      -1.590   8.527  12.126  1.00  0.00     0.010 C 
HETATM    5  C5  UNL     1      -0.665   7.357  12.529  1.00  0.00     0.005 C 
HETATM    6  C6  UNL     1       0.571   7.230  11.547  1.00  0.00    -0.018 C 
HETATM    7  C7  UNL     1       0.193   7.444  10.059  1.00  0.00     0.018 C 
HETATM    8  C15 UNL     1       1.212   5.841  11.709  1.00  0.00     0.012 C 
HETATM    9  C16 UNL     1       0.269   4.687  11.410  1.00  0.00     0.002 C 
HETATM   10  C17 UNL     1      -1.203   4.966  11.709  1.00  0.00     0.010 C 
HETATM   11  C18 UNL     1      -1.484   6.009  12.815  1.00  0.00    -0.032 C 
HETATM   12  C19 UNL     1      -0.995   5.417  14.167  1.00  0.00     0.016 C 
HETATM   13  C20 UNL     1      -3.052   6.306  12.913  1.00  0.00     0.025 C 
ENDROOT
BRANCH   6  14
HETATM   14  C8  UNL     1       1.652   8.313  11.873  1.00  0.00     0.180 C 
BRANCH  14  15
HETATM   15  O1  UNL     1       2.693   7.792  12.694  1.00  0.00    -0.358 OA
BRANCH  15  16
HETATM   16  C9  UNL     1       3.973   8.374  12.447  1.00  0.00     0.291 C 
HETATM   17  O2  UNL     1       4.764   8.401  13.639  1.00  0.00    -0.348 OA
HETATM   18  C10 UNL     1       6.137   8.787  13.473  1.00  0.00     0.179 C 
HETATM   19  C12 UNL     1       6.528   9.195  12.037  1.00  0.00     0.180 C 
HETATM   20  C13 UNL     1       5.980   8.266  10.938  1.00  0.00     0.183 C 
HETATM   21  C14 UNL     1       4.678   7.566  11.340  1.00  0.00     0.204 C 
BRANCH  18  22
HETATM   22  C11 UNL     1       7.038   7.724  14.126  1.00  0.00     0.198 C 
BRANCH  22  23
HETATM   23  O3  UNL     1       6.362   6.503  14.381  1.00  0.00    -0.398 OA
HETATM   24  H17 UNL     1       5.530   6.730  14.855  1.00  0.00     0.209 HD
ENDBRANCH  22  23
ENDBRANCH  18  22
BRANCH  19  25
HETATM   25  O4  UNL     1       7.933   9.372  11.845  1.00  0.00    -0.390 OA
HETATM   26  H19 UNL     1       8.243  10.089  12.433  1.00  0.00     0.210 HD
ENDBRANCH  19  25
BRANCH  20  27
HETATM   27  O5  UNL     1       6.945   7.288  10.524  1.00  0.00    -0.390 OA
HETATM   28  H21 UNL     1       7.815   7.654  10.797  1.00  0.00     0.210 HD
ENDBRANCH  20  27
BRANCH  21  29
HETATM   29  O6  UNL     1       4.985   6.228  11.787  1.00  0.00    -0.388 OA
HETATM   30  H23 UNL     1       5.754   5.961  11.231  1.00  0.00     0.210 HD
ENDBRANCH  21  29
ENDBRANCH  15  16
ENDBRANCH  14  15
ENDBRANCH   6  14
BRANCH  13  31
HETATM   31  C21 UNL     1      -3.984   5.137  13.355  1.00  0.00     0.037 C 
BRANCH  31  32
HETATM   32  C22 UNL     1      -5.466   5.387  13.265  1.00  0.00    -0.010 C 
HETATM   33  C23 UNL     1      -6.388   4.476  12.907  1.00  0.00     0.044 C 
HETATM   34  C24 UNL     1      -7.828   4.806  12.832  1.00  0.00     0.291 C 
HETATM   35  C26 UNL     1      -6.237   3.039  12.600  1.00  0.00     0.181 C 
HETATM   36  O7  UNL     1      -8.320   5.918  12.918  1.00  0.00    -0.260 OA
HETATM   37  O8  UNL     1      -8.525   3.646  12.697  1.00  0.00    -0.315 OA
HETATM   38  C25 UNL     1      -7.641   2.530  12.864  1.00  0.00     0.215 C 
BRANCH  35  39
HETATM   39  O9  UNL     1      -5.883   2.901  11.230  1.00  0.00    -0.389 OA
HETATM   40  H40 UNL     1      -5.726   1.957  11.058  1.00  0.00     0.210 HD
ENDBRANCH  35  39
ENDBRANCH  31  32
ENDBRANCH  13  31
TORSDOF 11
ENDMDL
