MODEL 1
REMARK minimizedAffinity -6.10135555
REMARK CNNscore 0.624033213
REMARK CNNaffinity 6.03687143
REMARK  5 active torsions:
REMARK  status: ('A' for Active; 'I' for Inactive)
REMARK    1  A    between atoms: C2_2  and  C4_4 
REMARK    2  A    between atoms: C7_7  and  C8_8 
REMARK    3  A    between atoms: C8_8  and  O2_10 
REMARK    4  A    between atoms: C11_13  and  C12_14 
REMARK    5  A    between atoms: C12_14  and  O4_16 
ROOT
HETATM    1  C4  UNL     1     -18.642  -3.862  15.789  1.00  0.00     0.019 C 
HETATM    2  C5  UNL     1     -18.035  -5.290  15.809  1.00  0.00     0.011 C 
HETATM    3  C6  UNL     1     -16.512  -5.115  15.900  1.00  0.00     0.021 C 
HETATM    4  C7  UNL     1     -16.265  -3.723  15.309  1.00  0.00     0.050 C 
HETATM    5  C9  UNL     1     -14.940  -3.075  15.714  1.00  0.00     0.022 C 
HETATM    6  C10 UNL     1     -14.894  -1.590  15.295  1.00  0.00     0.023 C 
HETATM    7  C11 UNL     1     -16.146  -0.699  15.660  1.00  0.00     0.057 C 
HETATM    8  C13 UNL     1     -17.488  -1.476  15.452  1.00  0.00     0.011 C 
HETATM    9  C14 UNL     1     -18.670  -0.693  16.033  1.00  0.00     0.007 C 
HETATM   10  C15 UNL     1     -18.604   0.822  15.820  1.00  0.00     0.006 C 
HETATM   11  C16 UNL     1     -17.688   1.284  14.664  1.00  0.00     0.003 C 
HETATM   12  C17 UNL     1     -17.788   2.870  14.357  1.00  0.00    -0.035 C 
HETATM   13  C18 UNL     1     -17.772   3.059  12.812  1.00  0.00     0.016 C 
HETATM   14  C19 UNL     1     -19.137   3.470  14.862  1.00  0.00     0.017 C 
HETATM   15  C20 UNL     1     -19.270   4.975  14.690  1.00  0.00     0.080 C 
HETATM   16  C21 UNL     1     -18.127   5.698  15.353  1.00  0.00     0.135 C 
HETATM   17  O5  UNL     1     -18.352   6.712  16.017  1.00  0.00    -0.297 OA
HETATM   18  C22 UNL     1     -16.697   5.209  15.064  1.00  0.00     0.017 C 
HETATM   19  C23 UNL     1     -16.233   5.849  13.746  1.00  0.00     0.023 C 
HETATM   20  C24 UNL     1     -15.788   5.772  16.190  1.00  0.00     0.023 C 
HETATM   21  C25 UNL     1     -16.638   3.637  15.091  1.00  0.00     0.009 C 
HETATM   22  C26 UNL     1     -15.267   3.078  14.675  1.00  0.00     0.007 C 
HETATM   23  C27 UNL     1     -15.102   1.653  15.176  1.00  0.00     0.011 C 
HETATM   24  C28 UNL     1     -16.208   0.653  14.729  1.00  0.00    -0.022 C 
HETATM   25  C29 UNL     1     -15.851   0.290  13.246  1.00  0.00     0.017 C 
HETATM   26  C30 UNL     1     -17.418  -2.931  15.963  1.00  0.00     0.018 C 
ENDROOT
BRANCH   4  27
HETATM   27  C8  UNL     1     -16.331  -3.853  13.779  1.00  0.00     0.149 C 
HETATM   28  O1  UNL     1     -17.006  -3.199  13.004  1.00  0.00    -0.649 OA
BRANCH  27  29
HETATM   29  O2  UNL     1     -15.545  -4.839  13.300  1.00  0.00    -0.776 OA
HETATM   30  H11 UNL     1     -15.705  -4.822  12.333  1.00  0.00     0.167 HD
ENDBRANCH  27  29
ENDBRANCH   4  27
BRANCH   1  31
HETATM   31  C2  UNL     1     -19.764  -3.705  16.803  1.00  0.00    -0.088 C 
HETATM   32  C1  UNL     1     -21.049  -3.662  16.408  1.00  0.00     0.014 C 
HETATM   33  C3  UNL     1     -19.416  -3.622  18.267  1.00  0.00     0.043 C 
ENDBRANCH   1  31
BRANCH   7  34
HETATM   34  C12 UNL     1     -16.020  -0.333  17.174  1.00  0.00     0.149 C 
HETATM   35  O3  UNL     1     -16.422  -0.967  18.137  1.00  0.00    -0.649 OA
BRANCH  34  36
HETATM   36  O4  UNL     1     -15.350   0.805  17.430  1.00  0.00    -0.776 OA
HETATM   37  H16 UNL     1     -15.363   0.861  18.410  1.00  0.00     0.167 HD
ENDBRANCH  34  36
ENDBRANCH   7  34
TORSDOF 5
ENDMDL
