MODEL 1
REMARK minimizedAffinity -9.69649792
REMARK CNNscore 0.835232615
REMARK CNNaffinity 7.27324438
REMARK  8 active torsions:
REMARK  status: ('A' for Active; 'I' for Inactive)
REMARK    1  A    between atoms: C5_5  and  O1_6 
REMARK    2  A    between atoms: C9_10  and  C10_11 
REMARK    3  A    between atoms: C10_11  and  C11_12 
REMARK    4  A    between atoms: C11_12  and  C12_13 
REMARK    5  A    between atoms: C14_15  and  C15_16 
REMARK    6  A    between atoms: C15_16  and  C16_17 
REMARK    7  A    between atoms: C16_17  and  C17_18 
REMARK    8  A    between atoms: C23_24  and  O2_25 
ROOT
HETATM    1  C12 UNL     1      -3.485  47.897 -21.384  1.00  0.00    -0.087 C 
HETATM    2  C13 UNL     1      -3.063  46.454 -21.294  1.00  0.00     0.043 C 
HETATM    3  C14 UNL     1      -3.438  48.787 -20.372  1.00  0.00    -0.024 C 
ENDROOT
BRANCH   3   4
HETATM    4  C15 UNL     1      -2.958  48.573 -18.965  1.00  0.00     0.030 C 
BRANCH   4   5
HETATM    5  C16 UNL     1      -1.515  49.043 -18.702  1.00  0.00     0.042 C 
BRANCH   5   6
HETATM    6  C17 UNL     1      -1.193  50.553 -18.896  1.00  0.00     0.065 C 
HETATM    7  C18 UNL     1      -2.410  51.418 -18.532  1.00  0.00     0.046 C 
HETATM    8  C19 UNL     1       0.027  50.870 -18.009  1.00  0.00     0.043 C 
HETATM    9  C20 UNL     1       0.528  52.288 -18.224  1.00  0.00     0.044 C 
HETATM   10  C21 UNL     1       0.584  52.610 -19.687  1.00  0.00    -0.021 A 
HETATM   11  C22 UNL     1       1.325  53.720 -20.119  1.00  0.00     0.046 A 
HETATM   12  C27 UNL     1      -0.115  51.839 -20.625  1.00  0.00     0.082 A 
HETATM   13  C23 UNL     1       1.378  54.033 -21.473  1.00  0.00     0.066 A 
HETATM   14  C24 UNL     1       0.703  53.260 -22.407  1.00  0.00     0.046 A 
HETATM   15  C25 UNL     1      -0.043  52.148 -21.994  1.00  0.00    -0.025 A 
HETATM   16  C26 UNL     1      -0.788  51.332 -23.012  1.00  0.00     0.051 C 
HETATM   17  O3  UNL     1      -0.873  50.748 -20.284  1.00  0.00    -0.340 OA
BRANCH  13  18
HETATM   18  O2  UNL     1       2.089  55.104 -21.927  1.00  0.00    -0.361 OA
HETATM   19  H36 UNL     1       2.508  55.541 -21.168  1.00  0.00     0.217 HD
ENDBRANCH  13  18
ENDBRANCH   5   6
ENDBRANCH   4   5
ENDBRANCH   3   4
BRANCH   1  20
HETATM   20  C11 UNL     1      -4.028  48.322 -22.740  1.00  0.00     0.034 C 
BRANCH  20  21
HETATM   21  C10 UNL     1      -2.917  48.570 -23.774  1.00  0.00     0.014 C 
BRANCH  21  22
HETATM   22  C9  UNL     1      -3.372  48.516 -25.262  1.00  0.00     0.024 C 
HETATM   23  C2  UNL     1      -4.895  48.324 -25.434  1.00  0.00    -0.084 C 
HETATM   24  C1  UNL     1      -5.802  48.218 -24.446  1.00  0.00     0.015 C 
HETATM   25  C3  UNL     1      -5.407  48.325 -26.862  1.00  0.00     0.036 C 
HETATM   26  C4  UNL     1      -4.289  48.235 -27.889  1.00  0.00     0.037 C 
HETATM   27  C5  UNL     1      -3.205  49.303 -27.688  1.00  0.00     0.127 C 
HETATM   28  C6  UNL     1      -2.933  49.711 -26.194  1.00  0.00    -0.014 C 
HETATM   29  C7  UNL     1      -3.671  51.023 -25.813  1.00  0.00     0.018 C 
HETATM   30  C8  UNL     1      -1.427  50.038 -26.102  1.00  0.00     0.018 C 
BRANCH  27  31
HETATM   31  O1  UNL     1      -3.512  50.453 -28.477  1.00  0.00    -0.395 OA
HETATM   32  H8  UNL     1      -3.570  50.168 -29.405  1.00  0.00     0.210 HD
ENDBRANCH  27  31
ENDBRANCH  21  22
ENDBRANCH  20  21
ENDBRANCH   1  20
TORSDOF 8
ENDMDL
