MODEL 1
REMARK minimizedAffinity -7.91951847
REMARK CNNscore 0.525439501
REMARK CNNaffinity 6.75629425
REMARK  15 active torsions:
REMARK  status: ('A' for Active; 'I' for Inactive)
REMARK    1  A    between atoms: C4_5  and  O2_6 
REMARK    2  A    between atoms: C7_10  and  O4_11 
REMARK    3  A    between atoms: O4_11  and  C8_12 
REMARK    4  A    between atoms: C8_12  and  C9_14 
REMARK    5  A    between atoms: C9_14  and  C11_16 
REMARK    6  A    between atoms: C11_16  and  O6_17 
REMARK    7  A    between atoms: C11_16  and  C12_18 
REMARK    8  A    between atoms: C14_20  and  C15_21 
REMARK    9  A    between atoms: C15_21  and  C16_22 
REMARK   10  A    between atoms: C15_21  and  C17_24 
REMARK   11  A    between atoms: C16_22  and  O7_23 
REMARK   12  A    between atoms: C17_24  and  C18_25 
REMARK   13  A    between atoms: C18_25  and  C19_26 
REMARK   14  A    between atoms: C19_26  and  C20_27 
REMARK   15  A    between atoms: C20_27  and  C21_28 
ROOT
HETATM    1  O4  UNL     1      -2.097   7.134  13.386  1.00  0.00    -0.312 OA
ENDROOT
BRANCH   1   2
HETATM    2  C7  UNL     1      -1.110   6.084  13.322  1.00  0.00     0.170 C 
HETATM    3  C6  UNL     1       0.095   6.501  12.505  1.00  0.00     0.127 A 
HETATM    4  C5  UNL     1       0.184   6.098  11.047  1.00  0.00     0.223 A 
HETATM    5  O3  UNL     1       0.867   5.359  12.077  1.00  0.00    -0.360 OA
HETATM    6  C27 UNL     1       0.974   7.636  13.041  1.00  0.00    -0.003 C 
HETATM    7  C4  UNL     1       1.060   6.818  10.070  1.00  0.00     0.199 C 
HETATM    8  O1  UNL     1       1.886   5.864   9.399  1.00  0.00    -0.348 OA
HETATM    9  C30 UNL     1       1.996   7.885  10.677  1.00  0.00     0.082 C 
HETATM   10  C3  UNL     1       3.060   6.544   8.945  1.00  0.00     0.205 C 
HETATM   11  C2  UNL     1       3.248   7.712   9.854  1.00  0.00    -0.056 C 
HETATM   12  C1  UNL     1       4.349   8.471   9.919  1.00  0.00     0.017 C 
HETATM   13  C29 UNL     1       2.273   7.724  12.184  1.00  0.00     0.027 C 
HETATM   14  C25 UNL     1       1.353   7.298  14.529  1.00  0.00    -0.007 C 
HETATM   15  C28 UNL     1       0.224   8.982  12.927  1.00  0.00     0.019 C 
HETATM   16  C24 UNL     1       0.124   6.914  15.380  1.00  0.00     0.007 C 
HETATM   17  C26 UNL     1       2.131   8.411  15.247  1.00  0.00     0.011 C 
HETATM   18  C23 UNL     1      -0.674   5.768  14.756  1.00  0.00     0.036 C 
BRANCH   7  19
HETATM   19  O2  UNL     1       0.239   7.448   9.087  1.00  0.00    -0.363 OA
HETATM   20  H5  UNL     1      -0.351   6.751   8.761  1.00  0.00     0.213 HD
ENDBRANCH   7  19
ENDBRANCH   1   2
BRANCH   1  21
HETATM   21  C8  UNL     1      -3.403   6.777  13.257  1.00  0.00     0.266 C 
HETATM   22  O5  UNL     1      -3.788   5.792  12.646  1.00  0.00    -0.265 OA
BRANCH  21  23
HETATM   23  C9  UNL     1      -4.321   7.814  13.881  1.00  0.00     0.114 C 
HETATM   24  C10 UNL     1      -3.684   9.205  13.966  1.00  0.00     0.023 C 
BRANCH  23  25
HETATM   25  C11 UNL     1      -4.866   7.317  15.240  1.00  0.00     0.159 C 
BRANCH  25  26
HETATM   26  O6  UNL     1      -3.880   6.436  15.805  1.00  0.00    -0.390 OA
HETATM   27  H13 UNL     1      -3.244   6.993  16.284  1.00  0.00     0.210 HD
ENDBRANCH  25  26
BRANCH  25  28
HETATM   28  C12 UNL     1      -6.218   6.601  15.192  1.00  0.00    -0.058 C 
HETATM   29  C13 UNL     1      -7.127   6.907  16.357  1.00  0.00     0.046 C 
HETATM   30  C14 UNL     1      -6.552   5.736  14.210  1.00  0.00    -0.015 C 
BRANCH  30  31
HETATM   31  C15 UNL     1      -7.877   5.021  14.021  1.00  0.00     0.032 C 
BRANCH  31  32
HETATM   32  C16 UNL     1      -7.648   3.552  13.619  1.00  0.00     0.172 C 
BRANCH  32  33
HETATM   33  O7  UNL     1      -8.739   3.018  12.878  1.00  0.00    -0.400 OA
HETATM   34  H21 UNL     1      -8.730   3.455  12.010  1.00  0.00     0.209 HD
ENDBRANCH  32  33
ENDBRANCH  31  32
BRANCH  31  35
HETATM   35  C17 UNL     1      -8.743   5.794  13.002  1.00  0.00     0.010 C 
BRANCH  35  36
HETATM   36  C18 UNL     1      -9.793   6.684  13.677  1.00  0.00     0.001 C 
BRANCH  36  37
HETATM   37  C19 UNL     1     -10.888   7.160  12.718  1.00  0.00     0.000 C 
BRANCH  37  38
HETATM   38  C20 UNL     1     -11.556   8.457  13.181  1.00  0.00    -0.000 C 
BRANCH  38  39
HETATM   39  C21 UNL     1     -13.007   8.222  13.609  1.00  0.00    -0.005 C 
HETATM   40  C22 UNL     1     -13.553   6.926  13.024  1.00  0.00     0.005 C 
ENDBRANCH  38  39
ENDBRANCH  37  38
ENDBRANCH  36  37
ENDBRANCH  35  36
ENDBRANCH  31  35
ENDBRANCH  30  31
ENDBRANCH  25  28
ENDBRANCH  23  25
ENDBRANCH  21  23
ENDBRANCH   1  21
TORSDOF 15
ENDMDL
