MODEL 1
REMARK minimizedAffinity -9.7357235
REMARK  4 active torsions:
REMARK  status: ('A' for Active; 'I' for Inactive)
REMARK    1  A    between atoms: C4_4  and  C5_5 
REMARK    2  A    between atoms: C5_5  and  C6_7 
REMARK    3  A    between atoms: C6_7  and  C7_8 
REMARK    4  A    between atoms: C7_8  and  C9_10 
ROOT
HETATM    1  C9  UNL     1      -1.194  50.414 -22.535  1.00  0.00    -0.001 C 
HETATM    2  C10 UNL     1      -1.388  50.360 -20.989  1.00  0.00     0.007 C 
HETATM    3  C11 UNL     1      -2.742  49.669 -20.717  1.00  0.00     0.015 C 
HETATM    4  C12 UNL     1      -3.147  49.064 -22.073  1.00  0.00    -0.013 C 
HETATM    5  C13 UNL     1      -2.366  47.704 -22.188  1.00  0.00     0.021 C 
HETATM    6  C14 UNL     1      -4.615  48.703 -22.310  1.00  0.00    -0.070 C 
HETATM    7  C15 UNL     1      -5.331  48.079 -21.356  1.00  0.00    -0.022 C 
HETATM    8  C16 UNL     1      -6.617  47.361 -21.622  1.00  0.00     0.034 C 
HETATM    9  C17 UNL     1      -6.701  46.925 -23.103  1.00  0.00     0.013 C 
HETATM   10  C18 UNL     1      -7.885  45.934 -23.399  1.00  0.00     0.018 C 
HETATM   11  C19 UNL     1      -7.584  44.574 -22.714  1.00  0.00     0.023 C 
HETATM   12  C20 UNL     1      -9.270  46.385 -22.906  1.00  0.00     0.023 C 
HETATM   13  C21 UNL     1      -7.979  45.692 -24.913  1.00  0.00     0.135 C 
HETATM   14  O2  UNL     1      -8.200  44.577 -25.392  1.00  0.00    -0.297 OA
HETATM   15  C22 UNL     1      -7.890  46.895 -25.820  1.00  0.00     0.080 C 
HETATM   16  C23 UNL     1      -6.634  47.694 -25.513  1.00  0.00     0.017 C 
HETATM   17  C24 UNL     1      -6.544  48.172 -24.043  1.00  0.00    -0.031 C 
HETATM   18  C25 UNL     1      -7.654  49.238 -23.810  1.00  0.00     0.016 C 
HETATM   19  C26 UNL     1      -5.159  48.916 -23.733  1.00  0.00     0.024 C 
HETATM   20  C27 UNL     1      -4.027  48.764 -24.777  1.00  0.00     0.010 C 
HETATM   21  C28 UNL     1      -2.770  49.639 -24.507  1.00  0.00     0.011 C 
HETATM   22  C29 UNL     1      -2.649  50.178 -23.061  1.00  0.00    -0.029 C 
HETATM   23  C30 UNL     1      -3.418  51.532 -22.935  1.00  0.00     0.016 C 
ENDROOT
BRANCH   1  24
HETATM   24  C7  UNL     1      -0.395  51.670 -22.986  1.00  0.00    -0.007 C 
HETATM   25  C8  UNL     1       0.178  52.464 -21.808  1.00  0.00     0.011 C 
BRANCH  24  26
HETATM   26  C6  UNL     1      -1.214  52.612 -23.901  1.00  0.00     0.087 C 
BRANCH  26  27
HETATM   27  C5  UNL     1      -0.745  52.648 -25.347  1.00  0.00     0.149 C 
HETATM   28  O1  UNL     1      -1.507  52.923 -26.272  1.00  0.00    -0.293 OA
BRANCH  27  29
HETATM   29  C4  UNL     1       0.690  52.313 -25.600  1.00  0.00     0.052 C 
HETATM   30  C2  UNL     1       1.191  51.905 -26.780  1.00  0.00    -0.084 C 
HETATM   31  C1  UNL     1       0.402  51.777 -28.054  1.00  0.00     0.043 C 
HETATM   32  C3  UNL     1       2.645  51.533 -26.903  1.00  0.00     0.043 C 
ENDBRANCH  27  29
ENDBRANCH  26  27
ENDBRANCH  24  26
ENDBRANCH   1  24
TORSDOF 4
ENDMDL
