MODEL 1
REMARK minimizedAffinity -9.97375298
REMARK  4 active torsions:
REMARK  status: ('A' for Active; 'I' for Inactive)
REMARK    1  A    between atoms: C4_4  and  C5_5 
REMARK    2  A    between atoms: C5_5  and  C6_6 
REMARK    3  A    between atoms: C6_6  and  C7_7 
REMARK    4  A    between atoms: C7_7  and  C9_9 
ROOT
HETATM    1  C9  UNL     1      -0.519  52.401 -21.624  1.00  0.00    -0.002 C 
HETATM    2  C10 UNL     1      -0.051  52.331 -23.109  1.00  0.00     0.006 C 
HETATM    3  C11 UNL     1      -0.765  51.141 -23.774  1.00  0.00     0.011 C 
HETATM    4  C12 UNL     1      -1.895  50.763 -22.801  1.00  0.00    -0.032 C 
HETATM    5  C13 UNL     1      -3.082  51.734 -23.092  1.00  0.00     0.016 C 
HETATM    6  C14 UNL     1      -2.385  49.288 -22.896  1.00  0.00     0.004 C 
HETATM    7  C15 UNL     1      -2.970  48.909 -24.274  1.00  0.00     0.007 C 
HETATM    8  C16 UNL     1      -4.486  49.021 -24.379  1.00  0.00     0.007 C 
HETATM    9  C17 UNL     1      -5.199  48.041 -23.430  1.00  0.00     0.010 C 
HETATM   10  C18 UNL     1      -6.758  48.061 -23.615  1.00  0.00     0.018 C 
HETATM   11  C19 UNL     1      -7.122  47.376 -24.955  1.00  0.00     0.023 C 
HETATM   12  C20 UNL     1      -7.367  49.477 -23.640  1.00  0.00     0.023 C 
HETATM   13  C21 UNL     1      -7.453  47.265 -22.501  1.00  0.00     0.135 C 
HETATM   14  O1  UNL     1      -8.523  46.676 -22.687  1.00  0.00    -0.297 OA
HETATM   15  C22 UNL     1      -6.812  47.211 -21.138  1.00  0.00     0.080 C 
HETATM   16  C23 UNL     1      -5.807  48.325 -20.939  1.00  0.00     0.018 C 
HETATM   17  C24 UNL     1      -4.707  48.250 -21.982  1.00  0.00    -0.026 A 
HETATM   18  C25 UNL     1      -3.522  47.403 -21.583  1.00  0.00     0.021 A 
HETATM   19  C26 UNL     1      -3.311  48.901 -21.712  1.00  0.00    -0.027 A 
HETATM   20  C27 UNL     1      -3.008  49.566 -20.351  1.00  0.00     0.011 C 
HETATM   21  C28 UNL     1      -2.292  50.926 -20.352  1.00  0.00     0.011 C 
HETATM   22  C29 UNL     1      -1.185  51.001 -21.411  1.00  0.00    -0.032 C 
HETATM   23  C30 UNL     1      -0.075  49.953 -21.079  1.00  0.00     0.016 C 
ENDROOT
BRANCH   1  24
HETATM   24  C7  UNL     1       0.625  52.888 -20.678  1.00  0.00    -0.014 C 
HETATM   25  C8  UNL     1       1.383  54.067 -21.321  1.00  0.00     0.010 C 
BRANCH  24  26
HETATM   26  C6  UNL     1       0.109  53.288 -19.277  1.00  0.00     0.008 C 
BRANCH  26  27
HETATM   27  C5  UNL     1       0.490  52.314 -18.151  1.00  0.00     0.028 C 
BRANCH  27  28
HETATM   28  C4  UNL     1       1.876  52.607 -17.642  1.00  0.00    -0.025 C 
HETATM   29  C2  UNL     1       2.409  52.286 -16.446  1.00  0.00    -0.091 C 
HETATM   30  C1  UNL     1       3.826  52.675 -16.115  1.00  0.00     0.042 C 
HETATM   31  C3  UNL     1       1.707  51.531 -15.352  1.00  0.00     0.042 C 
ENDBRANCH  27  28
ENDBRANCH  26  27
ENDBRANCH  24  26
ENDBRANCH   1  24
TORSDOF 4
ENDMDL
