MODEL 1
REMARK minimizedAffinity -8.59195423
REMARK CNNscore 0.519921958
REMARK CNNaffinity 6.92583609
REMARK  12 active torsions:
REMARK  status: ('A' for Active; 'I' for Inactive)
REMARK    1  A    between atoms: C3_3  and  O1_4 
REMARK    2  A    between atoms: N1_14  and  O2_16 
REMARK    3  A    between atoms: O2_16  and  C13_17 
REMARK    4  A    between atoms: C13_17  and  C14_18 
REMARK       I    between atoms: C14_18  and  N2_20 
REMARK    5  A    between atoms: N2_20  and  C15_21 
REMARK    6  A    between atoms: C15_21  and  C16_22 
REMARK    7  A    between atoms: C15_21  and  C27_38 
REMARK       I    between atoms: C16_22  and  N3_24 
REMARK    8  A    between atoms: N3_24  and  C17_25 
REMARK    9  A    between atoms: C17_25  and  C18_26 
REMARK   10  A    between atoms: C17_25  and  C20_30 
REMARK   11  A    between atoms: C18_26  and  C19_27 
REMARK   12  A    between atoms: C19_27  and  O6_29 
ROOT
HETATM    1  C1  UNL     1       0.360  55.607 -25.043  1.00  0.00     0.015 C 
HETATM    2  C2  UNL     1      -0.040  54.489 -25.226  1.00  0.00    -0.078 C 
HETATM    3  C3  UNL     1      -0.538  53.126 -25.469  1.00  0.00     0.128 C 
HETATM    4  C4  UNL     1       0.467  52.278 -26.251  1.00  0.00     0.052 C 
HETATM    5  C5  UNL     1      -0.104  50.872 -26.100  1.00  0.00     0.010 C 
HETATM    6  C6  UNL     1      -0.513  50.804 -24.623  1.00  0.00     0.002 C 
HETATM    7  C7  UNL     1      -1.565  49.731 -24.251  1.00  0.00    -0.004 C 
HETATM    8  C8  UNL     1      -2.733  49.529 -25.239  1.00  0.00     0.010 C 
HETATM    9  C9  UNL     1      -3.738  48.469 -24.766  1.00  0.00     0.035 C 
HETATM   10  C10 UNL     1      -4.166  48.708 -23.337  1.00  0.00    -0.069 C 
HETATM   11  C11 UNL     1      -5.463  48.895 -23.042  1.00  0.00     0.030 C 
HETATM   12  C12 UNL     1      -5.917  49.325 -21.697  1.00  0.00     0.032 C 
HETATM   13  N1  UNL     1      -7.202  49.392 -21.493  1.00  0.00    -0.271 N 
ATOM     14  H1  UNL     1      -7.907  49.154 -22.190  1.00  0.00     0.194 HD
HETATM   15  C30 UNL     1      -4.868  49.761 -20.695  1.00  0.00     0.060 C 
HETATM   16  C31 UNL     1      -3.551  49.018 -20.866  1.00  0.00     0.020 C 
HETATM   17  C32 UNL     1      -3.035  48.813 -22.321  1.00  0.00    -0.016 C 
HETATM   18  C33 UNL     1      -2.248  47.471 -22.267  1.00  0.00     0.020 C 
HETATM   19  C34 UNL     1      -2.075  49.965 -22.799  1.00  0.00     0.002 C 
HETATM   20  C35 UNL     1      -2.684  51.381 -22.632  1.00  0.00     0.007 C 
HETATM   21  C36 UNL     1      -2.256  52.428 -23.663  1.00  0.00     0.014 C 
HETATM   22  C37 UNL     1      -0.818  52.274 -24.178  1.00  0.00     0.003 C 
HETATM   23  C38 UNL     1       0.158  52.638 -23.026  1.00  0.00     0.020 C 
ENDROOT
BRANCH   3  24
HETATM   24  O1  UNL     1      -1.718  53.226 -26.275  1.00  0.00    -0.377 OA
HETATM   25  H2  UNL     1      -1.519  53.856 -26.988  1.00  0.00     0.211 HD
ENDBRANCH   3  24
BRANCH  13  26
HETATM   26  O2  UNL     1      -7.492  49.831 -20.193  1.00  0.00    -0.271 OA
BRANCH  26  27
HETATM   27  C13 UNL     1      -8.190  48.814 -19.493  1.00  0.00     0.303 C 
BRANCH  27  28
HETATM   28  C14 UNL     1      -9.161  48.068 -20.407  1.00  0.00     0.244 C 
HETATM   29  O3  UNL     1      -8.924  47.764 -21.572  1.00  0.00    -0.271 OA
HETATM   30  N2  UNL     1     -10.373  47.779 -19.796  1.00  0.00    -0.346 N 
HETATM   31  H16 UNL     1     -10.328  47.655 -18.790  1.00  0.00     0.163 HD
BRANCH  30  32
HETATM   32  C15 UNL     1     -11.343  46.934 -20.484  1.00  0.00     0.180 C 
BRANCH  32  33
HETATM   33  C16 UNL     1     -11.912  45.913 -19.473  1.00  0.00     0.241 C 
HETATM   34  O4  UNL     1     -11.199  45.111 -18.869  1.00  0.00    -0.271 OA
HETATM   35  N3  UNL     1     -13.274  46.021 -19.267  1.00  0.00    -0.354 N 
HETATM   36  H18 UNL     1     -13.797  46.640 -19.874  1.00  0.00     0.162 HD
BRANCH  35  37
HETATM   37  C17 UNL     1     -14.006  45.098 -18.392  1.00  0.00     0.098 C 
BRANCH  37  38
HETATM   38  C18 UNL     1     -13.526  45.266 -16.939  1.00  0.00     0.135 C 
BRANCH  38  39
HETATM   39  C19 UNL     1     -13.946  46.582 -16.341  1.00  0.00     0.141 C 
HETATM   40  O5  UNL     1     -13.991  47.669 -16.887  1.00  0.00    -0.650 OA
BRANCH  39  41
HETATM   41  O6  UNL     1     -14.314  46.450 -15.051  1.00  0.00    -0.776 OA
HETATM   42  H22 UNL     1     -14.602  47.350 -14.790  1.00  0.00     0.167 HD
ENDBRANCH  39  41
ENDBRANCH  38  39
ENDBRANCH  37  38
BRANCH  37  43
HETATM   43  C20 UNL     1     -15.546  45.256 -18.567  1.00  0.00     0.014 C 
HETATM   44  C21 UNL     1     -16.272  43.916 -18.360  1.00  0.00     0.033 C 
HETATM   45  C22 UNL     1     -17.773  44.068 -18.556  1.00  0.00     0.169 C 
HETATM   46  O7  UNL     1     -18.070  44.617 -19.837  1.00  0.00    -0.381 OA
HETATM   47  C23 UNL     1     -17.503  45.907 -20.095  1.00  0.00     0.054 C 
HETATM   48  C24 UNL     1     -18.164  46.985 -19.223  1.00  0.00     0.045 C 
HETATM   49  C25 UNL     1     -17.824  46.220 -21.565  1.00  0.00     0.045 C 
HETATM   50  C26 UNL     1     -15.972  45.868 -19.914  1.00  0.00     0.044 C 
ENDBRANCH  37  43
ENDBRANCH  35  37
ENDBRANCH  32  33
BRANCH  32  51
HETATM   51  C27 UNL     1     -12.474  47.745 -21.155  1.00  0.00     0.009 C 
HETATM   52  C28 UNL     1     -13.330  48.457 -20.100  1.00  0.00     0.012 C 
HETATM   53  C29 UNL     1     -13.371  46.899 -22.068  1.00  0.00     0.012 C 
ENDBRANCH  32  51
ENDBRANCH  30  32
ENDBRANCH  27  28
ENDBRANCH  26  27
ENDBRANCH  13  26
TORSDOF 12
ENDMDL
