MODEL 1
REMARK minimizedAffinity -8.51269817
REMARK  9 active torsions:
REMARK  status: ('A' for Active; 'I' for Inactive)
REMARK    1  A    between atoms: C2_2  and  C3_3 
REMARK    2  A    between atoms: C3_3  and  N1_4 
REMARK    3  A    between atoms: N1_4  and  C4_5 
REMARK    4  A    between atoms: C4_5  and  C5_6 
REMARK    5  A    between atoms: C7_8  and  O1_9 
REMARK    6  A    between atoms: C25_28  and  N2_29 
REMARK    7  A    between atoms: C25_28  and  C26_30 
REMARK    8  A    between atoms: C26_30  and  C27_31 
REMARK    9  A    between atoms: C27_31  and  O3_32 
ROOT
HETATM    1  C5  UNL     1       0.099   8.386  13.327  1.00  0.00    -0.021 A 
HETATM    2  C6  UNL     1       0.601   8.750  12.062  1.00  0.00     0.045 A 
HETATM    3  C7  UNL     1       0.309   8.009  10.929  1.00  0.00     0.066 A 
HETATM    4  C8  UNL     1      -0.442   6.850  11.016  1.00  0.00     0.045 A 
HETATM    5  C9  UNL     1      -0.925   6.403  12.261  1.00  0.00    -0.037 A 
HETATM    6  C10 UNL     1      -0.689   7.197  13.435  1.00  0.00    -0.042 A 
HETATM    7  C11 UNL     1      -1.360   6.845  14.775  1.00  0.00     0.044 C 
HETATM    8  C12 UNL     1      -2.814   7.361  14.778  1.00  0.00    -0.010 C 
HETATM    9  C13 UNL     1      -3.171   8.511  15.732  1.00  0.00     0.005 C 
HETATM   10  C14 UNL     1      -4.625   8.987  15.495  1.00  0.00     0.001 C 
HETATM   11  C15 UNL     1      -5.674   7.864  15.323  1.00  0.00     0.007 C 
HETATM   12  C16 UNL     1      -5.142   6.741  14.408  1.00  0.00     0.022 C 
HETATM   13  C17 UNL     1      -3.837   6.247  15.053  1.00  0.00     0.012 C 
HETATM   14  C18 UNL     1      -6.147   5.656  13.948  1.00  0.00     0.082 C 
HETATM   15  C19 UNL     1      -6.949   5.016  15.101  1.00  0.00     0.040 C 
HETATM   16  C20 UNL     1      -7.907   3.961  14.515  1.00  0.00     0.013 C 
HETATM   17  C21 UNL     1      -7.936   4.083  12.958  1.00  0.00     0.059 C 
HETATM   18  C22 UNL     1      -8.215   5.593  12.645  1.00  0.00     0.061 C 
HETATM   19  C23 UNL     1      -8.436   5.928  11.158  1.00  0.00     0.046 C 
HETATM   20  C24 UNL     1      -9.475   6.127  13.367  1.00  0.00     0.046 C 
HETATM   21  O2  UNL     1      -7.085   6.365  13.092  1.00  0.00    -0.368 OA
HETATM   22  C25 UNL     1      -6.533   3.619  12.387  1.00  0.00     0.180 C 
HETATM   23  C28 UNL     1      -5.469   4.461  13.162  1.00  0.00     0.139 C 
HETATM   24  C29 UNL     1      -4.228   4.809  12.413  1.00  0.00    -0.096 C 
HETATM   25  C30 UNL     1      -3.062   4.996  12.180  1.00  0.00    -0.101 C 
HETATM   26  C31 UNL     1      -1.588   5.034  12.252  1.00  0.00     0.133 C 
ENDROOT
BRANCH  22  27
HETATM   27  N2  UNL     1      -6.513   3.789  10.921  1.00  0.00     0.090 N 
HETATM   28  H37 UNL     1      -6.045   4.665  10.681  1.00  0.00     0.313 HD
HETATM   29  H38 UNL     1      -5.930   3.062  10.491  1.00  0.00     0.313 HD
ENDBRANCH  22  27
BRANCH  22  30
HETATM   30  C26 UNL     1      -6.318   2.079  12.620  1.00  0.00     0.069 C 
BRANCH  30  31
HETATM   31  C27 UNL     1      -5.874   1.246  11.410  1.00  0.00     0.166 C 
BRANCH  31  32
HETATM   32  O3  UNL     1      -4.468   1.289  11.214  1.00  0.00    -0.401 OA
HETATM   33  H43 UNL     1      -4.112   0.427  11.499  1.00  0.00     0.209 HD
ENDBRANCH  31  32
ENDBRANCH  30  31
ENDBRANCH  22  30
BRANCH   3  34
HETATM   34  O1  UNL     1       0.807   8.446   9.737  1.00  0.00    -0.361 OA
HETATM   35  H12 UNL     1       0.474   7.870   9.031  1.00  0.00     0.217 HD
ENDBRANCH   3  34
BRANCH   1  36
HETATM   36  C4  UNL     1       0.483   9.198  14.560  1.00  0.00     0.308 C 
BRANCH  36  37
HETATM   37  N1  UNL     1       0.474  10.660  14.450  1.00  0.00     0.087 N 
HETATM   38  H8  UNL     1       0.717  10.951  13.507  1.00  0.00     0.316 HD
BRANCH  37  39
HETATM   39  C3  UNL     1      -0.783  11.261  14.892  1.00  0.00     0.269 C 
BRANCH  39  40
HETATM   40  C2  UNL     1      -0.607  11.976  16.236  1.00  0.00     0.025 C 
HETATM   41  C1  UNL     1      -1.334  11.293  17.386  1.00  0.00     0.007 C 
ENDBRANCH  39  40
ENDBRANCH  37  39
ENDBRANCH  36  37
ENDBRANCH   1  36
TORSDOF 9
ENDMDL
