MODEL 1
REMARK minimizedAffinity -9.66089725
REMARK CNNscore 0.755161583
REMARK CNNaffinity 7.71298361
REMARK  6 active torsions:
REMARK  status: ('A' for Active; 'I' for Inactive)
REMARK    1  A    between atoms: C2_2  and  C30_31 
REMARK    2  A    between atoms: C3_3  and  C4_4 
REMARK    3  A    between atoms: C4_4  and  C5_5 
REMARK    4  A    between atoms: C5_5  and  C6_6 
REMARK    5  A    between atoms: C6_6  and  C8_8 
REMARK    6  A    between atoms: C30_31  and  O2_32 
ROOT
HETATM    1  C8  UNL     1      -5.016   7.038  15.380  1.00  0.00    -0.002 C 
HETATM    2  C9  UNL     1      -5.367   8.501  14.972  1.00  0.00     0.007 C 
HETATM    3  C10 UNL     1      -4.224   9.023  14.079  1.00  0.00     0.015 C 
HETATM    4  C11 UNL     1      -3.090   7.997  14.260  1.00  0.00    -0.013 C 
HETATM    5  C12 UNL     1      -2.349   8.402  15.573  1.00  0.00     0.021 C 
HETATM    6  C13 UNL     1      -2.021   7.913  13.175  1.00  0.00    -0.070 C 
HETATM    7  C14 UNL     1      -1.633   8.978  12.448  1.00  0.00    -0.022 C 
HETATM    8  C15 UNL     1      -0.528   8.960  11.430  1.00  0.00     0.034 C 
HETATM    9  C16 UNL     1       0.015   7.547  11.116  1.00  0.00     0.013 C 
HETATM   10  C17 UNL     1       1.239   7.545  10.135  1.00  0.00     0.018 C 
HETATM   11  C18 UNL     1       2.401   8.476  10.515  1.00  0.00     0.023 C 
HETATM   12  C19 UNL     1       0.758   7.989   8.730  1.00  0.00     0.023 C 
HETATM   13  C20 UNL     1       1.801   6.122  10.014  1.00  0.00     0.135 C 
HETATM   14  O1  UNL     1       2.170   5.645   8.938  1.00  0.00    -0.297 OA
HETATM   15  C21 UNL     1       1.985   5.337  11.287  1.00  0.00     0.080 C 
HETATM   16  C22 UNL     1       0.680   5.283  12.062  1.00  0.00     0.017 C 
HETATM   17  C23 UNL     1       0.127   6.682  12.428  1.00  0.00    -0.031 C 
HETATM   18  C24 UNL     1       1.037   7.310  13.513  1.00  0.00     0.016 C 
HETATM   19  C25 UNL     1      -1.354   6.545  12.976  1.00  0.00     0.024 C 
HETATM   20  C26 UNL     1      -1.519   5.615  14.199  1.00  0.00     0.010 C 
HETATM   21  C27 UNL     1      -2.958   5.510  14.758  1.00  0.00     0.011 C 
HETATM   22  C28 UNL     1      -3.906   6.658  14.343  1.00  0.00    -0.029 C 
HETATM   23  C29 UNL     1      -4.605   6.281  12.997  1.00  0.00     0.016 C 
ENDROOT
BRANCH   1  24
HETATM   24  C6  UNL     1      -6.286   6.144  15.525  1.00  0.00    -0.014 C 
HETATM   25  C7  UNL     1      -7.217   6.655  16.631  1.00  0.00     0.010 C 
BRANCH  24  26
HETATM   26  C5  UNL     1      -7.054   6.079  14.174  1.00  0.00     0.008 C 
BRANCH  26  27
HETATM   27  C4  UNL     1      -7.345   4.652  13.688  1.00  0.00     0.028 C 
BRANCH  27  28
HETATM   28  C3  UNL     1      -6.430   4.259  12.558  1.00  0.00    -0.022 C 
HETATM   29  C2  UNL     1      -6.293   3.031  12.017  1.00  0.00    -0.064 C 
HETATM   30  C1  UNL     1      -5.386   2.807  10.836  1.00  0.00     0.045 C 
BRANCH  29  31
HETATM   31  C30 UNL     1      -7.018   1.806  12.507  1.00  0.00     0.197 C 
BRANCH  31  32
HETATM   32  O2  UNL     1      -8.418   2.051  12.553  1.00  0.00    -0.397 OA
HETATM   33  H48 UNL     1      -8.578   2.914  12.135  1.00  0.00     0.209 HD
ENDBRANCH  31  32
ENDBRANCH  29  31
ENDBRANCH  27  28
ENDBRANCH  26  27
ENDBRANCH  24  26
ENDBRANCH   1  24
TORSDOF 6
ENDMDL
