MODEL 1
REMARK minimizedAffinity -9.68391228
REMARK  5 active torsions:
REMARK  status: ('A' for Active; 'I' for Inactive)
REMARK    1  A    between atoms: O1_1  and  C1_2 
REMARK    2  A    between atoms: C4_5  and  C5_6 
REMARK    3  A    between atoms: C9_10  and  O2_11 
REMARK    4  A    between atoms: C13_16  and  C14_17 
REMARK    5  A    between atoms: C18_21  and  O4_22 
ROOT
HETATM    1  C5  UNL     1      -4.680   5.956  12.991  1.00  0.00     0.065 C 
HETATM    2  C6  UNL     1      -3.668   7.080  13.179  1.00  0.00    -0.015 A 
HETATM    3  C7  UNL     1      -4.080   8.425  13.167  1.00  0.00     0.013 A 
HETATM    4  C8  UNL     1      -3.158   9.455  13.359  1.00  0.00     0.037 A 
HETATM    5  C9  UNL     1      -1.818   9.150  13.557  1.00  0.00     0.068 A 
HETATM    6  C10 UNL     1      -1.383   7.831  13.551  1.00  0.00     0.073 A 
HETATM    7  C11 UNL     1      -2.304   6.802  13.338  1.00  0.00     0.078 A 
HETATM    8  O3  UNL     1      -1.784   5.536  13.321  1.00  0.00    -0.350 OA
HETATM    9  C12 UNL     1      -2.605   4.599  12.617  1.00  0.00     0.186 C 
HETATM   10  C13 UNL     1      -4.023   4.564  13.190  1.00  0.00     0.056 C 
ENDROOT
BRANCH   1  11
HETATM   11  C4  UNL     1      -5.916   6.094  13.881  1.00  0.00    -0.049 A 
HETATM   12  C3  UNL     1      -7.176   6.313  13.300  1.00  0.00     0.011 A 
HETATM   13  C2  UNL     1      -8.315   6.429  14.097  1.00  0.00     0.037 A 
HETATM   14  C1  UNL     1      -8.204   6.324  15.477  1.00  0.00     0.065 A 
HETATM   15  C21 UNL     1      -6.969   6.102  16.078  1.00  0.00     0.037 A 
HETATM   16  C20 UNL     1      -5.829   5.986  15.280  1.00  0.00     0.011 A 
BRANCH  14  17
HETATM   17  O1  UNL     1      -9.342   6.444  16.218  1.00  0.00    -0.361 OA
HETATM   18  H1  UNL     1      -9.112   6.333  17.155  1.00  0.00     0.217 HD
ENDBRANCH  14  17
ENDBRANCH   1  11
BRANCH  10  19
HETATM   19  C14 UNL     1      -4.841   3.428  12.590  1.00  0.00    -0.048 A 
HETATM   20  C15 UNL     1      -4.275   2.485  11.717  1.00  0.00     0.008 A 
HETATM   21  C16 UNL     1      -5.054   1.458  11.176  1.00  0.00     0.003 A 
HETATM   22  C17 UNL     1      -6.407   1.361  11.496  1.00  0.00     0.036 A 
HETATM   23  C18 UNL     1      -6.972   2.295  12.356  1.00  0.00     0.066 A 
HETATM   24  C19 UNL     1      -6.204   3.320  12.901  1.00  0.00     0.044 A 
BRANCH  23  25
HETATM   25  O4  UNL     1      -8.291   2.240  12.697  1.00  0.00    -0.361 OA
HETATM   26  H15 UNL     1      -8.705   1.507  12.214  1.00  0.00     0.217 HD
ENDBRANCH  23  25
ENDBRANCH  10  19
BRANCH   5  27
HETATM   27  O2  UNL     1      -0.952  10.185  13.752  1.00  0.00    -0.361 OA
HETATM   28  H7  UNL     1      -0.062   9.820  13.885  1.00  0.00     0.217 HD
ENDBRANCH   5  27
TORSDOF 5
ENDMDL
