MODEL 1
REMARK minimizedAffinity -6.99432373
REMARK CNNscore 0.450061649
REMARK CNNaffinity 5.96495581
REMARK  6 active torsions:
REMARK  status: ('A' for Active; 'I' for Inactive)
REMARK    1  A    between atoms: C9_10  and  C10_11 
REMARK    2  A    between atoms: C11_13  and  O3_14 
REMARK    3  A    between atoms: C12_15  and  C13_16 
REMARK    4  A    between atoms: C14_18  and  O5_19 
REMARK    5  A    between atoms: C16_21  and  C17_22 
REMARK    6  A    between atoms: C17_22  and  C18_23 
ROOT
HETATM    1  C1  UNL     1      12.367  63.469 -12.328  1.00  0.00     0.043 C 
HETATM    2  C2  UNL     1      12.484  64.941 -12.597  1.00  0.00    -0.087 C 
HETATM    3  C3  UNL     1      12.003  65.910 -11.793  1.00  0.00    -0.024 C 
HETATM    4  C4  UNL     1      11.130  65.791 -10.585  1.00  0.00     0.030 C 
HETATM    5  C5  UNL     1       9.622  65.585 -10.837  1.00  0.00     0.042 C 
HETATM    6  C6  UNL     1       8.899  66.272 -12.049  1.00  0.00     0.069 C 
HETATM    7  C7  UNL     1       9.251  67.777 -12.109  1.00  0.00     0.047 C 
HETATM    8  O1  UNL     1       7.490  66.258 -11.644  1.00  0.00    -0.338 OA
HETATM    9  C8  UNL     1       6.625  66.603 -12.648  1.00  0.00     0.095 A 
HETATM   10  C9  UNL     1       5.596  67.519 -12.410  1.00  0.00     0.070 A 
HETATM   11  C11 UNL     1       4.686  67.824 -13.434  1.00  0.00     0.097 A 
HETATM   12  C12 UNL     1       4.792  67.179 -14.672  1.00  0.00     0.069 A 
HETATM   13  C14 UNL     1       5.808  66.231 -14.883  1.00  0.00     0.091 A 
HETATM   14  C15 UNL     1       6.743  65.954 -13.878  1.00  0.00     0.015 A 
HETATM   15  C16 UNL     1       7.802  64.879 -13.991  1.00  0.00     0.032 C 
HETATM   16  C21 UNL     1       9.129  65.422 -13.389  1.00  0.00     0.034 C 
HETATM   17  C22 UNL     1      10.129  66.074 -14.368  1.00  0.00     0.006 A 
HETATM   18  C23 UNL     1      10.903  65.092 -15.244  1.00  0.00    -0.001 A 
HETATM   19  C24 UNL     1      12.401  64.903 -15.187  1.00  0.00     0.010 C 
HETATM   20  C25 UNL     1      13.138  65.345 -13.909  1.00  0.00     0.034 C 
HETATM   21  C26 UNL     1      10.217  66.285 -15.889  1.00  0.00    -0.039 A 
HETATM   22  C27 UNL     1       9.080  66.018 -16.838  1.00  0.00     0.015 C 
HETATM   23  C28 UNL     1      11.048  67.474 -16.331  1.00  0.00     0.015 C 
ENDROOT
BRANCH  15  24
HETATM   24  C17 UNL     1       7.254  63.612 -13.257  1.00  0.00     0.014 C 
BRANCH  24  25
HETATM   25  C18 UNL     1       5.751  63.286 -13.390  1.00  0.00    -0.022 C 
HETATM   26  C19 UNL     1       5.099  62.870 -12.078  1.00  0.00     0.009 C 
HETATM   27  C20 UNL     1       5.456  62.267 -14.491  1.00  0.00     0.009 C 
ENDBRANCH  24  25
ENDBRANCH  15  24
BRANCH  13  28
HETATM   28  O5  UNL     1       5.906  65.522 -16.053  1.00  0.00    -0.359 OA
HETATM   29  H15 UNL     1       5.194  65.825 -16.663  1.00  0.00     0.217 HD
ENDBRANCH  13  28
BRANCH  10  30
HETATM   30  C10 UNL     1       5.487  68.157 -11.085  1.00  0.00     0.275 C 
HETATM   31  O2  UNL     1       4.482  67.988 -10.398  1.00  0.00    -0.301 OA
ENDBRANCH  10  30
BRANCH  12  32
HETATM   32  C13 UNL     1       3.816  67.484 -15.738  1.00  0.00     0.275 C 
HETATM   33  O4  UNL     1       4.197  67.700 -16.887  1.00  0.00    -0.301 OA
ENDBRANCH  12  32
BRANCH  11  34
HETATM   34  O3  UNL     1       3.675  68.735 -13.251  1.00  0.00    -0.359 OA
HETATM   35  H13 UNL     1       3.729  69.088 -12.332  1.00  0.00     0.217 HD
ENDBRANCH  11  34
TORSDOF 6
ENDMDL
