MODEL 1
REMARK minimizedAffinity -8.26688766
REMARK CNNscore 0.564362586
REMARK CNNaffinity 6.88449621
REMARK  4 active torsions:
REMARK  status: ('A' for Active; 'I' for Inactive)
REMARK    1  A    between atoms: C4_4  and  O1_5 
REMARK    2  A    between atoms: C4_4  and  C5_6 
REMARK    3  A    between atoms: C5_6  and  C6_7 
REMARK    4  A    between atoms: C6_7  and  C8_9 
ROOT
HETATM    1  C8  UNL     1      -3.625   3.161  12.221  1.00  0.00    -0.001 C 
HETATM    2  C9  UNL     1      -2.900   1.872  11.751  1.00  0.00     0.007 C 
HETATM    3  C10 UNL     1      -1.431   2.276  11.472  1.00  0.00     0.015 C 
HETATM    4  C11 UNL     1      -1.292   3.717  12.026  1.00  0.00    -0.013 C 
HETATM    5  C12 UNL     1      -0.992   3.578  13.556  1.00  0.00     0.021 C 
HETATM    6  C13 UNL     1      -0.183   4.616  11.479  1.00  0.00    -0.070 C 
HETATM    7  C14 UNL     1       1.034   4.132  11.186  1.00  0.00    -0.022 C 
HETATM    8  C15 UNL     1       2.196   4.967  10.766  1.00  0.00     0.034 C 
HETATM    9  C16 UNL     1       1.862   6.429  10.371  1.00  0.00     0.013 C 
HETATM   10  C17 UNL     1       3.157   7.309  10.211  1.00  0.00     0.018 C 
HETATM   11  C18 UNL     1       3.018   8.207   8.955  1.00  0.00     0.023 C 
HETATM   12  C19 UNL     1       4.465   6.505  10.015  1.00  0.00     0.023 C 
HETATM   13  C20 UNL     1       3.370   8.203  11.440  1.00  0.00     0.135 C 
HETATM   14  O2  UNL     1       4.042   9.239  11.374  1.00  0.00    -0.297 OA
HETATM   15  C21 UNL     1       2.830   7.749  12.780  1.00  0.00     0.080 C 
HETATM   16  C22 UNL     1       1.410   7.180  12.754  1.00  0.00     0.017 C 
HETATM   17  C23 UNL     1       0.783   7.044  11.347  1.00  0.00    -0.031 C 
HETATM   18  C24 UNL     1       0.325   8.452  10.871  1.00  0.00     0.016 C 
HETATM   19  C25 UNL     1      -0.500   6.110  11.346  1.00  0.00     0.024 C 
HETATM   20  C26 UNL     1      -1.626   6.550  12.322  1.00  0.00     0.010 C 
HETATM   21  C27 UNL     1      -2.897   5.666  12.326  1.00  0.00     0.011 C 
HETATM   22  C28 UNL     1      -2.711   4.293  11.659  1.00  0.00    -0.029 C 
HETATM   23  C29 UNL     1      -2.891   4.428  10.109  1.00  0.00     0.016 C 
ENDROOT
BRANCH   1  24
HETATM   24  C6  UNL     1      -5.179   3.180  12.084  1.00  0.00    -0.008 C 
HETATM   25  C7  UNL     1      -5.542   2.854  10.622  1.00  0.00     0.010 C 
BRANCH  24  26
HETATM   26  C5  UNL     1      -5.897   4.453  12.581  1.00  0.00     0.078 C 
BRANCH  26  27
HETATM   27  C4  UNL     1      -7.270   4.266  13.265  1.00  0.00     0.191 A 
HETATM   28  C3  UNL     1      -7.316   4.951  14.579  1.00  0.00     0.054 A 
HETATM   29  C2  UNL     1      -8.267   5.882  14.604  1.00  0.00     0.015 A 
HETATM   30  C1  UNL     1      -8.673   6.816  15.674  1.00  0.00     0.054 C 
HETATM   31  C30 UNL     1      -8.913   5.837  13.289  1.00  0.00     0.291 A 
HETATM   32  O3  UNL     1      -8.311   4.887  12.524  1.00  0.00    -0.276 OA
HETATM   33  O4  UNL     1      -9.835   6.548  12.929  1.00  0.00    -0.260 OA
BRANCH  27  34
HETATM   34  O1  UNL     1      -7.565   2.905  13.501  1.00  0.00    -0.362 OA
HETATM   35  H5  UNL     1      -7.666   2.496  12.626  1.00  0.00     0.213 HD
ENDBRANCH  27  34
ENDBRANCH  26  27
ENDBRANCH  24  26
ENDBRANCH   1  24
TORSDOF 4
ENDMDL
