MODEL 1
REMARK minimizedAffinity -7.15439844
REMARK CNNscore 0.794262588
REMARK CNNaffinity 6.6126442
REMARK  12 active torsions:
REMARK  status: ('A' for Active; 'I' for Inactive)
REMARK    1  A    between atoms: O1_2  and  C2_3 
REMARK    2  A    between atoms: C2_3  and  C3_4 
REMARK    3  A    between atoms: C3_4  and  C4_5 
REMARK    4  A    between atoms: C4_5  and  N1_6 
REMARK    5  A    between atoms: N1_6  and  C5_7 
REMARK    6  A    between atoms: C5_7  and  C6_8 
REMARK    7  A    between atoms: C10_12  and  O2_13 
REMARK    8  A    between atoms: C16_19  and  O3_20 
REMARK    9  A    between atoms: C20_24  and  C21_25 
REMARK   10  A    between atoms: C27_31  and  O4_32 
REMARK   11  A    between atoms: C30_35  and  C31_36 
REMARK   12  A    between atoms: C32_38  and  O6_39 
ROOT
HETATM    1  C6  UNL     1     -12.611 -11.611  23.131  1.00  0.00    -0.022 C 
HETATM    2  C7  UNL     1     -13.491 -10.649  23.505  1.00  0.00    -0.014 C 
HETATM    3  C8  UNL     1     -13.978 -10.533  24.927  1.00  0.00     0.021 C 
HETATM    4  C9  UNL     1     -14.194  -9.139  25.517  1.00  0.00     0.051 C 
HETATM    5  C10 UNL     1     -14.540  -9.472  26.989  1.00  0.00     0.098 C 
HETATM    6  C11 UNL     1     -13.538 -10.653  27.350  1.00  0.00    -0.002 C 
HETATM    7  C12 UNL     1     -14.235 -11.771  28.146  1.00  0.00     0.019 C 
HETATM    8  C13 UNL     1     -12.318 -10.144  28.156  1.00  0.00     0.013 C 
HETATM    9  C14 UNL     1     -12.702  -9.257  29.324  1.00  0.00     0.010 C 
HETATM   10  C15 UNL     1     -13.368  -7.959  28.823  1.00  0.00     0.041 C 
HETATM   11  C16 UNL     1     -14.630  -8.259  28.002  1.00  0.00     0.095 C 
HETATM   12  C17 UNL     1     -15.070  -6.964  27.305  1.00  0.00     0.049 C 
HETATM   13  C18 UNL     1     -14.891  -5.638  28.102  1.00  0.00     0.025 C 
HETATM   14  C19 UNL     1     -16.015  -4.707  27.575  1.00  0.00     0.012 C 
HETATM   15  C20 UNL     1     -16.073  -3.260  28.094  1.00  0.00    -0.011 C 
HETATM   16  C24 UNL     1     -16.659  -3.254  29.508  1.00  0.00     0.005 C 
HETATM   17  C25 UNL     1     -15.646  -3.508  30.615  1.00  0.00     0.010 C 
HETATM   18  C26 UNL     1     -14.433  -4.414  30.306  1.00  0.00     0.050 C 
HETATM   19  C27 UNL     1     -13.608  -4.524  31.601  1.00  0.00     0.125 C 
HETATM   20  C28 UNL     1     -12.237  -5.134  31.330  1.00  0.00     0.033 C 
HETATM   21  C29 UNL     1     -12.247  -6.165  30.198  1.00  0.00     0.023 C 
HETATM   22  C30 UNL     1     -13.606  -6.897  29.987  1.00  0.00     0.051 C 
HETATM   23  C32 UNL     1     -14.746  -5.815  29.653  1.00  0.00     0.082 C 
HETATM   24  C33 UNL     1     -12.993 -11.127  25.950  1.00  0.00     0.036 C 
HETATM   25  C34 UNL     1     -12.684 -12.510  25.479  1.00  0.00    -0.035 C 
HETATM   26  C35 UNL     1     -12.958 -13.733  25.918  1.00  0.00     0.088 C 
HETATM   27  C36 UNL     1     -12.575 -14.648  24.838  1.00  0.00     0.284 C 
HETATM   28  O7  UNL     1     -12.678 -15.860  24.892  1.00  0.00    -0.260 OA
HETATM   29  O8  UNL     1     -12.136 -13.936  23.764  1.00  0.00    -0.304 OA
HETATM   30  C37 UNL     1     -12.010 -12.573  24.145  1.00  0.00     0.192 C 
ENDROOT
BRANCH   1  31
HETATM   31  C5  UNL     1     -12.228 -11.798  21.684  1.00  0.00     0.306 C 
BRANCH  31  32
HETATM   32  N1  UNL     1     -11.631 -10.612  21.078  1.00  0.00     0.087 N 
HETATM   33  H10 UNL     1     -10.812 -10.335  21.617  1.00  0.00     0.316 HD
BRANCH  32  34
HETATM   34  C4  UNL     1     -11.296 -10.721  19.662  1.00  0.00     0.272 C 
BRANCH  34  35
HETATM   35  C3  UNL     1      -9.923 -10.174  19.270  1.00  0.00     0.056 C 
BRANCH  35  36
HETATM   36  C2  UNL     1      -9.214  -9.455  20.412  1.00  0.00     0.168 C 
BRANCH  36  37
HETATM   37  O1  UNL     1      -8.046 -10.204  20.756  1.00  0.00    -0.396 OA
HETATM   38  C1  UNL     1      -8.120 -10.708  22.082  1.00  0.00     0.201 C 
ENDBRANCH  36  37
ENDBRANCH  35  36
ENDBRANCH  34  35
ENDBRANCH  32  34
ENDBRANCH  31  32
ENDBRANCH   1  31
BRANCH   5  39
HETATM   39  O2  UNL     1     -15.881 -10.034  26.934  1.00  0.00    -0.386 OA
HETATM   40  H17 UNL     1     -16.512  -9.299  26.805  1.00  0.00     0.210 HD
ENDBRANCH   5  39
BRANCH  11  41
HETATM   41  O3  UNL     1     -15.699  -8.549  28.922  1.00  0.00    -0.386 OA
HETATM   42  H26 UNL     1     -15.878  -9.512  28.889  1.00  0.00     0.210 HD
ENDBRANCH  11  41
BRANCH  22  43
HETATM   43  C31 UNL     1     -13.916  -7.668  31.295  1.00  0.00     0.244 C 
HETATM   44  O5  UNL     1     -13.078  -8.077  32.093  1.00  0.00    -0.306 OA
ENDBRANCH  22  43
BRANCH  23  45
HETATM   45  O6  UNL     1     -16.011  -6.239  30.161  1.00  0.00    -0.388 OA
HETATM   46  H52 UNL     1     -16.106  -7.201  29.957  1.00  0.00     0.210 HD
ENDBRANCH  23  45
BRANCH  15  47
HETATM   47  C21 UNL     1     -16.894  -2.373  27.103  1.00  0.00    -0.019 C 
HETATM   48  C22 UNL     1     -18.332  -2.851  26.878  1.00  0.00     0.010 C 
HETATM   49  C23 UNL     1     -16.894  -0.898  27.526  1.00  0.00     0.010 C 
ENDBRANCH  15  47
BRANCH  19  50
HETATM   50  O4  UNL     1     -14.259  -5.301  32.603  1.00  0.00    -0.395 OA
HETATM   51  H46 UNL     1     -15.177  -5.491  32.322  1.00  0.00     0.210 HD
ENDBRANCH  19  50
TORSDOF 12
ENDMDL
