MODEL 1
REMARK minimizedAffinity -8.20100594
REMARK CNNscore 0.366164237
REMARK CNNaffinity 7.36116982
REMARK  7 active torsions:
REMARK  status: ('A' for Active; 'I' for Inactive)
REMARK    1  A    between atoms: C2_2  and  C3_3 
REMARK    2  A    between atoms: C5_5  and  N1_6 
REMARK    3  A    between atoms: C5_5  and  C35_45 
REMARK       I    between atoms: N1_6  and  C6_7 
REMARK    4  A    between atoms: C6_7  and  C7_9 
REMARK    5  A    between atoms: C12_16  and  C13_17 
REMARK       I    between atoms: C35_45  and  N5_47 
REMARK    6  A    between atoms: N5_47  and  S1_48 
REMARK    7  A    between atoms: S1_48  and  C36_51 
ROOT
HETATM    1  C7  UNL     1       2.532  53.801 -10.836  1.00  0.00     0.181 C 
HETATM    2  C8  UNL     1       3.561  54.927 -10.955  1.00  0.00     0.069 C 
HETATM    3  C9  UNL     1       4.496  54.730  -9.761  1.00  0.00     0.154 C 
HETATM    4  C10 UNL     1       3.844  53.655  -8.881  1.00  0.00     0.159 C 
HETATM    5  N2  UNL     1       2.473  53.486  -9.406  1.00  0.00    -0.334 N 
HETATM    6  C11 UNL     1       1.422  53.553  -8.515  1.00  0.00     0.244 C 
HETATM    7  O2  UNL     1       1.745  53.665  -7.312  1.00  0.00    -0.271 OA
HETATM    8  C12 UNL     1      -0.129  53.306  -8.819  1.00  0.00     0.186 C 
HETATM    9  N3  UNL     1      -0.809  53.962  -7.682  1.00  0.00    -0.323 N 
HETATM   10  C17 UNL     1      -0.942  53.442  -6.437  1.00  0.00     0.361 C 
HETATM   11  O3  UNL     1      -0.723  52.293  -6.096  1.00  0.00    -0.239 OA
HETATM   12  O4  UNL     1      -1.331  54.468  -5.645  1.00  0.00    -0.303 OA
HETATM   13  C18 UNL     1      -1.056  54.447  -4.235  1.00  0.00     0.189 C 
HETATM   14  C19 UNL     1      -0.111  55.660  -3.931  1.00  0.00    -0.025 C 
HETATM   15  C20 UNL     1      -0.707  56.921  -4.606  1.00  0.00     0.017 C 
HETATM   16  C21 UNL     1       1.246  55.321  -4.572  1.00  0.00     0.017 C 
HETATM   17  C22 UNL     1       0.045  55.874  -2.400  1.00  0.00     0.011 C 
HETATM   18  C23 UNL     1       0.697  57.182  -1.890  1.00  0.00     0.001 C 
HETATM   19  C24 UNL     1       2.203  57.371  -2.157  1.00  0.00     0.005 C 
HETATM   20  C25 UNL     1       2.533  58.429  -3.239  1.00  0.00     0.039 C 
HETATM   21  C26 UNL     1       3.956  58.341  -3.749  1.00  0.00    -0.050 A 
HETATM   22  C27 UNL     1       5.025  58.547  -2.864  1.00  0.00     0.007 A 
HETATM   23  C28 UNL     1       6.361  58.400  -3.270  1.00  0.00     0.001 A 
HETATM   24  C29 UNL     1       6.665  58.031  -4.581  1.00  0.00     0.009 A 
HETATM   25  C30 UNL     1       5.619  57.845  -5.470  1.00  0.00    -0.032 A 
HETATM   26  C31 UNL     1       4.283  58.028  -5.074  1.00  0.00    -0.026 A 
HETATM   27  C32 UNL     1       3.396  57.826  -6.269  1.00  0.00     0.168 C 
HETATM   28  N4  UNL     1       4.290  57.297  -7.289  1.00  0.00    -0.320 N 
HETATM   29  C33 UNL     1       5.686  57.386  -6.895  1.00  0.00     0.167 C 
HETATM   30  C34 UNL     1       3.811  56.553  -8.338  1.00  0.00     0.363 C 
HETATM   31  O5  UNL     1       2.619  56.435  -8.598  1.00  0.00    -0.238 OA
HETATM   32  O6  UNL     1       4.811  55.922  -9.016  1.00  0.00    -0.297 OA
HETATM   33  H24 UNL     1      -0.790  54.969  -7.645  1.00  0.00     0.165 HD
ENDROOT
BRANCH   1  34
HETATM   34  C6  UNL     1       2.935  52.549 -11.646  1.00  0.00     0.241 C 
HETATM   35  N1  UNL     1       2.498  52.594 -12.951  1.00  0.00    -0.341 N 
HETATM   36  H7  UNL     1       1.768  53.279 -13.119  1.00  0.00     0.163 HD
HETATM   37  O1  UNL     1       3.669  51.683 -11.188  1.00  0.00    -0.271 OA
BRANCH  35  38
HETATM   38  C5  UNL     1       2.753  51.645 -14.021  1.00  0.00     0.122 A 
HETATM   39  C3  UNL     1       1.904  51.717 -15.291  1.00  0.00     0.048 A 
HETATM   40  C4  UNL     1       3.363  52.081 -15.341  1.00  0.00     0.053 A 
BRANCH  39  41
HETATM   41  C2  UNL     1       1.437  50.497 -15.958  1.00  0.00    -0.029 C 
HETATM   42  C1  UNL     1       0.314  50.391 -16.675  1.00  0.00     0.007 C 
ENDBRANCH  39  41
BRANCH  38  43
HETATM   43  C35 UNL     1       3.169  50.277 -13.512  1.00  0.00     0.260 C 
HETATM   44  O7  UNL     1       4.296  49.841 -13.709  1.00  0.00    -0.270 OA
HETATM   45  N5  UNL     1       2.181  49.644 -12.758  1.00  0.00    -0.252 N 
HETATM   46  H48 UNL     1       1.224  49.977 -12.834  1.00  0.00     0.181 HD
BRANCH  45  47
HETATM   47  S1  UNL     1       2.280  48.114 -12.134  1.00  0.00     0.237 S 
HETATM   48  O8  UNL     1       1.026  47.791 -11.496  1.00  0.00    -0.205 OA
HETATM   49  O9  UNL     1       3.517  48.120 -11.379  1.00  0.00    -0.205 OA
BRANCH  47  50
HETATM   50  C36 UNL     1       2.562  46.991 -13.529  1.00  0.00     0.130 A 
HETATM   51  C37 UNL     1       1.512  45.926 -13.697  1.00  0.00     0.023 A 
HETATM   52  C38 UNL     1       1.563  47.093 -14.647  1.00  0.00     0.023 A 
ENDBRANCH  47  50
ENDBRANCH  45  47
ENDBRANCH  38  43
ENDBRANCH  35  38
ENDBRANCH   1  34
BRANCH   8  53
HETATM   53  C13 UNL     1      -0.934  53.707 -10.100  1.00  0.00    -0.022 C 
HETATM   54  C14 UNL     1      -2.444  53.823  -9.829  1.00  0.00     0.017 C 
HETATM   55  C15 UNL     1      -0.610  52.820 -11.314  1.00  0.00     0.017 C 
HETATM   56  C16 UNL     1      -0.549  55.170 -10.520  1.00  0.00     0.017 C 
ENDBRANCH   8  53
TORSDOF 7
ENDMDL
