MODEL 1
REMARK minimizedAffinity -6.53478289
REMARK CNNscore 0.437785506
REMARK CNNaffinity 6.19178391
REMARK  13 active torsions:
REMARK  status: ('A' for Active; 'I' for Inactive)
REMARK    1  A    between atoms: C4_4  and  C5_5 
REMARK    2  A    between atoms: C5_5  and  C6_6 
REMARK    3  A    between atoms: C6_6  and  C7_7 
REMARK    4  A    between atoms: C9_9  and  C10_10 
REMARK    5  A    between atoms: C11_11  and  C12_12 
REMARK    6  A    between atoms: C14_14  and  C15_15 
REMARK    7  A    between atoms: C18_18  and  O1_19 
REMARK    8  A    between atoms: C19_21  and  C20_22 
REMARK    9  A    between atoms: C20_22  and  C21_23 
REMARK   10  A    between atoms: C21_23  and  C22_24 
REMARK   11  A    between atoms: C22_24  and  O3_25 
REMARK   12  A    between atoms: C24_27  and  C26_29 
REMARK   13  A    between atoms: C29_33  and  O5_35 
ROOT
HETATM    1  C15 UNL     1      -6.748   7.954  14.306  1.00  0.00     0.149 C 
HETATM    2  C16 UNL     1      -5.784   7.072  13.518  1.00  0.00     0.054 C 
HETATM    3  C17 UNL     1      -4.499   7.001  14.372  1.00  0.00     0.050 C 
HETATM    4  C18 UNL     1      -5.109   7.205  15.776  1.00  0.00     0.270 C 
HETATM    5  O2  UNL     1      -6.221   8.084  15.633  1.00  0.00    -0.351 OA
HETATM    6  C19 UNL     1      -3.839   5.579  14.207  1.00  0.00     0.032 C 
HETATM    7  C23 UNL     1      -3.256   5.413  12.792  1.00  0.00    -0.066 C 
HETATM    8  C24 UNL     1      -3.597   4.457  11.888  1.00  0.00    -0.021 C 
HETATM    9  C25 UNL     1      -2.932   4.284  10.544  1.00  0.00     0.052 C 
HETATM   10  C27 UNL     1      -2.236   6.493  12.466  1.00  0.00     0.038 C 
HETATM   11  C28 UNL     1      -2.827   7.893  12.628  1.00  0.00     0.042 C 
HETATM   12  C29 UNL     1      -3.471   8.138  14.010  1.00  0.00     0.067 C 
HETATM   13  C30 UNL     1      -4.022   9.573  14.031  1.00  0.00     0.047 C 
ENDROOT
BRANCH   4  14
HETATM   14  O1  UNL     1      -5.629   5.993  16.315  1.00  0.00    -0.370 OA
HETATM   15  H26 UNL     1      -5.998   6.271  17.174  1.00  0.00     0.212 HD
ENDBRANCH   4  14
BRANCH   6  16
HETATM   16  C20 UNL     1      -2.785   5.224  15.295  1.00  0.00     0.012 C 
BRANCH  16  17
HETATM   17  C21 UNL     1      -1.380   5.784  15.024  1.00  0.00     0.027 C 
BRANCH  17  18
HETATM   18  C22 UNL     1      -0.390   4.796  14.411  1.00  0.00     0.164 C 
BRANCH  18  19
HETATM   19  O3  UNL     1       0.816   5.436  14.023  1.00  0.00    -0.401 OA
HETATM   20  H34 UNL     1       1.315   5.637  14.841  1.00  0.00     0.209 HD
ENDBRANCH  18  19
ENDBRANCH  17  18
ENDBRANCH  16  17
ENDBRANCH   6  16
BRANCH  12  21
HETATM   21  O5  UNL     1      -2.419   8.114  14.990  1.00  0.00    -0.389 OA
HETATM   22  H46 UNL     1      -1.768   8.802  14.767  1.00  0.00     0.210 HD
ENDBRANCH  12  21
BRANCH   1  23
HETATM   23  C14 UNL     1      -8.133   7.380  14.402  1.00  0.00     0.011 C 
HETATM   24  C12 UNL     1      -9.258   8.008  14.802  1.00  0.00    -0.063 C 
HETATM   25  C13 UNL     1      -9.305   9.465  15.186  1.00  0.00     0.048 C 
BRANCH  24  26
HETATM   26  C11 UNL     1     -10.505   7.243  14.857  1.00  0.00     0.006 C 
HETATM   27  C10 UNL     1     -11.500   7.271  13.955  1.00  0.00     0.001 C 
BRANCH  27  28
HETATM   28  C9  UNL     1     -12.710   6.488  14.105  1.00  0.00     0.002 C 
HETATM   29  C7  UNL     1     -13.956   6.847  13.731  1.00  0.00    -0.084 C 
HETATM   30  C8  UNL     1     -14.306   8.122  13.008  1.00  0.00     0.043 C 
BRANCH  29  31
HETATM   31  C6  UNL     1     -15.120   5.901  13.987  1.00  0.00     0.037 C 
BRANCH  31  32
HETATM   32  C5  UNL     1     -14.742   4.601  14.711  1.00  0.00     0.031 C 
BRANCH  32  33
HETATM   33  C4  UNL     1     -15.921   3.781  15.158  1.00  0.00    -0.024 C 
HETATM   34  C2  UNL     1     -16.000   2.438  15.241  1.00  0.00    -0.091 C 
HETATM   35  C1  UNL     1     -14.902   1.487  14.855  1.00  0.00     0.042 C 
HETATM   36  C3  UNL     1     -17.257   1.770  15.735  1.00  0.00     0.042 C 
ENDBRANCH  32  33
ENDBRANCH  31  32
ENDBRANCH  29  31
ENDBRANCH  27  28
ENDBRANCH  24  26
ENDBRANCH   1  23
BRANCH   8  37
HETATM   37  C26 UNL     1      -4.683   3.453  12.133  1.00  0.00     0.265 C 
HETATM   38  O4  UNL     1      -4.880   2.492  11.398  1.00  0.00    -0.302 OA
ENDBRANCH   8  37
TORSDOF 13
ENDMDL
