MODEL 1
REMARK minimizedAffinity -9.80951118
REMARK  6 active torsions:
REMARK  status: ('A' for Active; 'I' for Inactive)
REMARK    1  A    between atoms: C2_2  and  C30_32 
REMARK    2  A    between atoms: C3_3  and  C4_4 
REMARK    3  A    between atoms: C4_4  and  C5_5 
REMARK    4  A    between atoms: C5_5  and  C6_6 
REMARK    5  A    between atoms: C6_6  and  C8_8 
REMARK    6  A    between atoms: C30_32  and  O4_34 
ROOT
HETATM    1  C8  UNL     1       0.085  50.948 -21.402  1.00  0.00    -0.002 C 
HETATM    2  C9  UNL     1       0.140  51.150 -19.861  1.00  0.00     0.007 C 
HETATM    3  C10 UNL     1      -1.094  50.451 -19.260  1.00  0.00     0.015 C 
HETATM    4  C11 UNL     1      -1.653  49.576 -20.396  1.00  0.00    -0.005 C 
HETATM    5  C12 UNL     1      -0.826  48.250 -20.399  1.00  0.00     0.021 C 
HETATM    6  C13 UNL     1      -3.108  49.121 -20.375  1.00  0.00    -0.000 C 
HETATM    7  C14 UNL     1      -3.807  48.928 -21.524  1.00  0.00    -0.060 C 
HETATM    8  C15 UNL     1      -3.145  49.186 -22.890  1.00  0.00     0.036 C 
HETATM    9  C16 UNL     1      -1.698  49.720 -22.896  1.00  0.00     0.015 C 
HETATM   10  C17 UNL     1      -1.399  50.530 -21.629  1.00  0.00    -0.028 C 
HETATM   11  C18 UNL     1      -2.302  51.805 -21.621  1.00  0.00     0.016 C 
HETATM   12  C19 UNL     1      -5.283  48.441 -21.557  1.00  0.00    -0.014 C 
HETATM   13  C20 UNL     1      -5.260  46.957 -21.994  1.00  0.00     0.020 C 
HETATM   14  C21 UNL     1      -6.107  49.270 -22.589  1.00  0.00     0.021 C 
HETATM   15  C22 UNL     1      -7.616  49.318 -22.371  1.00  0.00     0.080 C 
HETATM   16  C23 UNL     1      -8.116  48.248 -21.436  1.00  0.00     0.135 C 
HETATM   17  O1  UNL     1      -9.073  47.543 -21.752  1.00  0.00    -0.297 OA
HETATM   18  C24 UNL     1      -7.444  48.156 -20.061  1.00  0.00     0.018 C 
HETATM   19  C25 UNL     1      -8.236  49.087 -19.118  1.00  0.00     0.023 C 
HETATM   20  C26 UNL     1      -7.591  46.718 -19.521  1.00  0.00     0.023 C 
HETATM   21  C27 UNL     1      -5.958  48.650 -20.161  1.00  0.00     0.020 C 
HETATM   22  C28 UNL     1      -5.074  48.115 -19.037  1.00  0.00     0.090 C 
HETATM   23  C29 UNL     1      -3.718  48.768 -19.053  1.00  0.00     0.157 C 
HETATM   24  O2  UNL     1      -3.107  48.936 -17.999  1.00  0.00    -0.293 OA
ENDROOT
BRANCH   1  25
HETATM   25  C6  UNL     1       0.678  52.163 -22.171  1.00  0.00    -0.014 C 
HETATM   26  C7  UNL     1       0.666  53.455 -21.349  1.00  0.00     0.010 C 
BRANCH  25  27
HETATM   27  C5  UNL     1       0.015  52.386 -23.561  1.00  0.00     0.008 C 
BRANCH  27  28
HETATM   28  C4  UNL     1       0.828  53.127 -24.635  1.00  0.00     0.028 C 
BRANCH  28  29
HETATM   29  C3  UNL     1       0.435  52.785 -26.045  1.00  0.00    -0.013 C 
HETATM   30  C2  UNL     1       1.141  52.094 -26.962  1.00  0.00     0.008 C 
HETATM   31  C1  UNL     1       0.589  51.753 -28.313  1.00  0.00     0.055 C 
BRANCH  30  32
HETATM   32  C30 UNL     1       2.500  51.566 -26.719  1.00  0.00     0.171 C 
HETATM   33  O3  UNL     1       2.772  50.612 -26.012  1.00  0.00    -0.646 OA
BRANCH  32  34
HETATM   34  O4  UNL     1       3.430  52.192 -27.452  1.00  0.00    -0.773 OA
HETATM   35  H44 UNL     1       4.259  51.717 -27.240  1.00  0.00     0.167 HD
ENDBRANCH  32  34
ENDBRANCH  30  32
ENDBRANCH  28  29
ENDBRANCH  27  28
ENDBRANCH  25  27
ENDBRANCH   1  25
TORSDOF 6
ENDMDL
