MODEL 1
REMARK minimizedAffinity -9.9539175
REMARK  5 active torsions:
REMARK  status: ('A' for Active; 'I' for Inactive)
REMARK    1  A    between atoms: N1_2  and  C2_3 
REMARK    2  A    between atoms: C4_5  and  N3_29 
REMARK    3  A    between atoms: C5_7  and  N2_12 
REMARK    4  A    between atoms: C7_9  and  O2_10 
REMARK    5  A    between atoms: C28_35  and  O4_36 
ROOT
HETATM    1  C2  UNL     1       8.766 -10.713  27.612  1.00  0.00     0.257 C 
HETATM    2  C3  UNL     1       8.020  -9.840  28.699  1.00  0.00     0.092 C 
HETATM    3  C4  UNL     1       7.151  -8.924  27.891  1.00  0.00     0.234 C 
HETATM    4  O1  UNL     1       6.419  -9.800  27.030  1.00  0.00    -0.333 OA
HETATM    5  C5  UNL     1       7.088  -9.879  25.760  1.00  0.00     0.168 C 
HETATM    6  C6  UNL     1       6.376 -11.056  25.069  1.00  0.00     0.074 C 
HETATM    7  C7  UNL     1       8.623 -10.187  26.084  1.00  0.00     0.209 C 
ENDROOT
BRANCH   1   8
HETATM    8  N1  UNL     1      10.140 -11.059  28.031  1.00  0.00     0.086 N 
HETATM    9  C1  UNL     1      11.187 -10.196  27.505  1.00  0.00     0.307 C 
HETATM   10  H4  UNL     1      10.321 -12.024  27.744  1.00  0.00     0.316 HD
ENDBRANCH   1   8
BRANCH   7  11
HETATM   11  O2  UNL     1       9.143 -11.188  25.188  1.00  0.00    -0.384 OA
HETATM   12  C8  UNL     1       8.955 -12.522  25.643  1.00  0.00     0.202 C 
ENDBRANCH   7  11
BRANCH   3  13
HETATM   13  N3  UNL     1       6.239  -7.881  28.195  1.00  0.00    -0.316 N 
HETATM   14  C24 UNL     1       4.892  -7.715  28.092  1.00  0.00     0.048 A 
HETATM   15  C19 UNL     1       4.584  -6.521  28.791  1.00  0.00     0.004 A 
HETATM   16  C23 UNL     1       3.909  -8.495  27.469  1.00  0.00     0.030 A 
HETATM   17  C18 UNL     1       5.804  -5.989  29.330  1.00  0.00     0.022 A 
HETATM   18  C20 UNL     1       3.232  -6.122  28.848  1.00  0.00     0.014 A 
HETATM   19  C17 UNL     1       6.292  -4.947  30.130  1.00  0.00     0.057 A 
HETATM   20  C25 UNL     1       6.785  -6.843  28.898  1.00  0.00     0.077 A 
HETATM   21  C16 UNL     1       7.669  -4.782  30.525  1.00  0.00     0.020 A 
HETATM   22  C27 UNL     1       5.528  -3.866  30.763  1.00  0.00     0.255 A 
HETATM   23  C15 UNL     1       8.693  -5.659  30.106  1.00  0.00     0.017 A 
HETATM   24  C28 UNL     1       7.763  -3.559  31.395  1.00  0.00     0.257 A 
HETATM   25  C14 UNL     1      10.089  -5.844  30.327  1.00  0.00     0.004 A 
HETATM   26  C26 UNL     1       8.312  -6.676  29.260  1.00  0.00     0.077 A 
HETATM   27  C9  UNL     1      10.511  -6.958  29.571  1.00  0.00     0.049 A 
HETATM   28  C13 UNL     1      11.037  -5.166  31.125  1.00  0.00     0.014 A 
HETATM   29  N2  UNL     1       9.413  -7.418  28.851  1.00  0.00    -0.308 N 
HETATM   30  C10 UNL     1      11.846  -7.396  29.611  1.00  0.00     0.030 A 
HETATM   31  C11 UNL     1      12.759  -6.705  30.413  1.00  0.00     0.002 A 
HETATM   32  C12 UNL     1      12.363  -5.604  31.159  1.00  0.00     0.001 A 
HETATM   33  N4  UNL     1       6.411  -3.134  31.522  1.00  0.00    -0.326 N 
HETATM   34  H24 UNL     1       6.127  -2.287  31.993  1.00  0.00     0.165 HD
HETATM   35  O3  UNL     1       4.339  -3.642  30.658  1.00  0.00    -0.268 OA
HETATM   36  C21 UNL     1       2.247  -6.893  28.222  1.00  0.00     0.001 A 
HETATM   37  C22 UNL     1       2.583  -8.062  27.544  1.00  0.00     0.002 A 
BRANCH  24  38
HETATM   38  O4  UNL     1       8.212  -3.849  32.693  1.00  0.00    -0.372 OA
HETATM   39  H26 UNL     1       7.639  -4.567  33.010  1.00  0.00     0.212 HD
ENDBRANCH  24  38
ENDBRANCH   3  13
TORSDOF 5
ENDMDL
