MODEL 1
REMARK minimizedAffinity -7.31687021
REMARK CNNscore 0.548828959
REMARK CNNaffinity 6.76598024
REMARK  4 active torsions:
REMARK  status: ('A' for Active; 'I' for Inactive)
REMARK    1  A    between atoms: C4_4  and  C5_5 
REMARK    2  A    between atoms: C5_5  and  C6_6 
REMARK    3  A    between atoms: C6_6  and  C7_7 
REMARK    4  A    between atoms: C7_7  and  C9_9 
ROOT
HETATM    1  C9  UNL     1      -1.251   9.924  15.678  1.00  0.00    -0.002 C 
HETATM    2  C10 UNL     1      -0.047   9.529  16.579  1.00  0.00     0.006 C 
HETATM    3  C11 UNL     1       0.735   8.417  15.832  1.00  0.00     0.011 C 
HETATM    4  C12 UNL     1       0.159   8.421  14.401  1.00  0.00    -0.032 C 
HETATM    5  C13 UNL     1       0.900   9.570  13.644  1.00  0.00     0.016 C 
HETATM    6  C14 UNL     1       0.286   7.102  13.562  1.00  0.00     0.004 C 
HETATM    7  C15 UNL     1       1.735   6.598  13.433  1.00  0.00     0.007 C 
HETATM    8  C16 UNL     1       2.400   6.602  12.054  1.00  0.00     0.007 C 
HETATM    9  C17 UNL     1       1.815   7.571  11.014  1.00  0.00     0.010 C 
HETATM   10  C18 UNL     1       2.496   7.414   9.608  1.00  0.00     0.018 C 
HETATM   11  C19 UNL     1       3.989   7.797   9.680  1.00  0.00     0.023 C 
HETATM   12  C20 UNL     1       2.406   5.992   9.026  1.00  0.00     0.023 C 
HETATM   13  C21 UNL     1       1.792   8.369   8.633  1.00  0.00     0.135 C 
HETATM   14  O1  UNL     1       2.390   9.194   7.950  1.00  0.00    -0.297 OA
HETATM   15  C22 UNL     1       0.294   8.236   8.534  1.00  0.00     0.080 C 
HETATM   16  C23 UNL     1      -0.309   8.450   9.911  1.00  0.00     0.018 C 
HETATM   17  C24 UNL     1       0.280   7.491  10.935  1.00  0.00    -0.026 A 
HETATM   18  C25 UNL     1      -0.405   6.168  11.184  1.00  0.00     0.021 A 
HETATM   19  C26 UNL     1      -0.507   7.253  12.240  1.00  0.00    -0.027 A 
HETATM   20  C27 UNL     1      -1.950   7.761  12.438  1.00  0.00     0.011 C 
HETATM   21  C28 UNL     1      -2.083   8.968  13.381  1.00  0.00     0.011 C 
HETATM   22  C29 UNL     1      -1.362   8.706  14.711  1.00  0.00    -0.032 C 
HETATM   23  C30 UNL     1      -2.097   7.539  15.438  1.00  0.00     0.016 C 
ENDROOT
BRANCH   1  24
HETATM   24  C7  UNL     1      -2.544  10.415  16.397  1.00  0.00    -0.014 C 
HETATM   25  C8  UNL     1      -2.525  10.309  17.926  1.00  0.00     0.010 C 
BRANCH  24  26
HETATM   26  C6  UNL     1      -2.849  11.877  15.973  1.00  0.00     0.008 C 
BRANCH  26  27
HETATM   27  C5  UNL     1      -3.601  12.686  17.037  1.00  0.00     0.028 C 
BRANCH  27  28
HETATM   28  C4  UNL     1      -4.970  13.084  16.557  1.00  0.00    -0.025 C 
HETATM   29  C2  UNL     1      -5.963  13.633  17.286  1.00  0.00    -0.091 C 
HETATM   30  C1  UNL     1      -5.908  13.920  18.767  1.00  0.00     0.042 C 
HETATM   31  C3  UNL     1      -7.268  14.009  16.636  1.00  0.00     0.042 C 
ENDBRANCH  27  28
ENDBRANCH  26  27
ENDBRANCH  24  26
ENDBRANCH   1  24
TORSDOF 4
ENDMDL
