MODEL 1
REMARK minimizedAffinity -9.14900684
REMARK CNNscore 0.164175376
REMARK CNNaffinity 6.62599802
REMARK  15 active torsions:
REMARK  status: ('A' for Active; 'I' for Inactive)
REMARK    1  A    between atoms: C2_2  and  C3_3 
REMARK    2  A    between atoms: C3_3  and  C4_4 
REMARK    3  A    between atoms: C4_4  and  O1_5 
REMARK    4  A    between atoms: C4_4  and  C5_6 
REMARK    5  A    between atoms: C5_6  and  C6_7 
REMARK    6  A    between atoms: C6_7  and  O2_8 
REMARK    7  A    between atoms: C6_7  and  C7_9 
REMARK    8  A    between atoms: C7_9  and  C8_10 
REMARK    9  A    between atoms: C8_10  and  C9_12 
REMARK   10  A    between atoms: C9_12  and  C10_13 
REMARK   11  A    between atoms: C10_13  and  C11_14 
REMARK   12  A    between atoms: C25_29  and  O5_30 
REMARK   13  A    between atoms: C29_34  and  C30_35 
REMARK   14  A    between atoms: C30_35  and  N1_36 
REMARK   15  A    between atoms: C30_35  and  N2_37 
ROOT
HETATM    1  C11 UNL     1      -2.373  50.860 -14.421  1.00  0.00    -0.055 A 
HETATM    2  C12 UNL     1      -1.031  50.472 -14.301  1.00  0.00     0.010 A 
HETATM    3  C13 UNL     1      -0.212  50.378 -15.432  1.00  0.00     0.041 A 
HETATM    4  C14 UNL     1      -0.725  50.632 -16.703  1.00  0.00     0.120 A 
HETATM    5  O4  UNL     1       0.211  50.530 -17.713  1.00  0.00    -0.258 OA
HETATM    6  C15 UNL     1      -0.304  50.353 -18.925  1.00  0.00     0.061 C 
HETATM    7  C16 UNL     1      -0.990  50.231 -19.911  1.00  0.00    -0.064 C 
HETATM    8  C17 UNL     1      -2.056  50.229 -20.927  1.00  0.00     0.044 C 
HETATM    9  C18 UNL     1      -1.885  48.994 -21.847  1.00  0.00     0.024 C 
HETATM   10  C19 UNL     1      -2.466  49.405 -23.194  1.00  0.00     0.002 C 
HETATM   11  C20 UNL     1      -2.322  50.918 -23.273  1.00  0.00     0.002 C 
HETATM   12  C21 UNL     1      -1.745  51.363 -21.932  1.00  0.00     0.024 C 
HETATM   13  C22 UNL     1      -3.477  50.420 -20.241  1.00  0.00     0.135 C 
HETATM   14  C23 UNL     1      -4.525  49.532 -20.834  1.00  0.00    -0.093 C 
HETATM   15  C24 UNL     1      -5.313  48.706 -21.219  1.00  0.00    -0.069 C 
HETATM   16  C25 UNL     1      -6.249  47.635 -21.620  1.00  0.00     0.230 C 
HETATM   17  C26 UNL     1      -7.314  47.408 -20.554  1.00  0.00    -0.011 A 
HETATM   18  C27 UNL     1      -8.383  48.323 -20.492  1.00  0.00     0.012 A 
HETATM   19  C28 UNL     1      -9.365  48.245 -19.500  1.00  0.00     0.012 A 
HETATM   20  C29 UNL     1      -9.331  47.247 -18.524  1.00  0.00     0.004 A 
HETATM   21  C31 UNL     1      -8.262  46.334 -18.572  1.00  0.00     0.019 A 
HETATM   22  C32 UNL     1      -7.268  46.375 -19.575  1.00  0.00    -0.043 A 
HETATM   23  C33 UNL     1      -6.193  45.298 -19.504  1.00  0.00     0.080 C 
HETATM   24  C34 UNL     1      -4.977  45.693 -18.756  1.00  0.00    -0.025 C 
HETATM   25  C35 UNL     1      -4.484  46.842 -18.309  1.00  0.00     0.015 C 
HETATM   26  C36 UNL     1      -4.788  48.273 -18.215  1.00  0.00     0.107 C 
HETATM   27  N3  UNL     1      -3.690  48.967 -18.177  1.00  0.00    -0.335 N 
HETATM   28  C37 UNL     1      -2.571  47.958 -18.043  1.00  0.00     0.123 C 
HETATM   29  C38 UNL     1      -3.082  46.732 -18.095  1.00  0.00     0.060 C 
HETATM   30  N4  UNL     1      -2.677  45.453 -18.185  1.00  0.00    -0.364 N 
ATOM     31  H4  UNL     1      -1.754  45.058 -18.002  1.00  0.00     0.165 HD
HETATM   32  C39 UNL     1      -3.771  44.843 -18.569  1.00  0.00     0.096 C 
HETATM   33  C40 UNL     1      -3.552  50.369 -18.636  1.00  0.00     0.251 C 
HETATM   34  O6  UNL     1      -2.615  51.308 -18.052  1.00  0.00    -0.321 OA
HETATM   35  C41 UNL     1      -2.082  50.976 -16.828  1.00  0.00     0.106 A 
HETATM   36  C42 UNL     1      -2.896  51.102 -15.697  1.00  0.00     0.047 A 
ENDROOT
BRANCH   1  37
HETATM   37  C10 UNL     1      -3.210  51.070 -13.173  1.00  0.00     0.046 C 
BRANCH  37  38
HETATM   38  C9  UNL     1      -3.621  52.519 -12.922  1.00  0.00     0.083 C 
BRANCH  38  39
HETATM   39  C8  UNL     1      -3.868  52.804 -11.454  1.00  0.00     0.129 C 
HETATM   40  O3  UNL     1      -4.568  52.026 -10.794  1.00  0.00    -0.298 OA
BRANCH  39  41
HETATM   41  C7  UNL     1      -3.314  54.069 -10.831  1.00  0.00     0.110 C 
BRANCH  41  42
HETATM   42  C6  UNL     1      -2.105  53.885  -9.902  1.00  0.00     0.127 C 
BRANCH  42  43
HETATM   43  C5  UNL     1      -1.028  54.974 -10.105  1.00  0.00     0.063 C 
BRANCH  43  44
HETATM   44  C4  UNL     1       0.407  54.461 -10.319  1.00  0.00     0.120 C 
BRANCH  44  45
HETATM   45  C3  UNL     1       1.502  55.462  -9.911  1.00  0.00     0.031 C 
BRANCH  45  46
HETATM   46  C2  UNL     1       2.829  55.158 -10.604  1.00  0.00    -0.002 C 
HETATM   47  C1  UNL     1       3.505  56.440 -11.066  1.00  0.00     0.005 C 
ENDBRANCH  45  46
ENDBRANCH  44  45
BRANCH  44  48
HETATM   48  O1  UNL     1       0.574  54.047 -11.674  1.00  0.00    -0.395 OA
HETATM   49  H9  UNL     1       0.831  54.834 -12.202  1.00  0.00     0.210 HD
ENDBRANCH  44  48
ENDBRANCH  43  44
ENDBRANCH  42  43
BRANCH  42  50
HETATM   50  O2  UNL     1      -1.556  52.572  -9.988  1.00  0.00    -0.395 OA
HETATM   51  H13 UNL     1      -1.031  52.502 -10.802  1.00  0.00     0.210 HD
ENDBRANCH  42  50
ENDBRANCH  41  42
ENDBRANCH  39  41
ENDBRANCH  38  39
ENDBRANCH  37  38
ENDBRANCH   1  37
BRANCH  16  52
HETATM   52  O5  UNL     1      -6.860  47.964 -22.863  1.00  0.00    -0.379 OA
HETATM   53  H32 UNL     1      -6.594  48.874 -23.096  1.00  0.00     0.211 HD
ENDBRANCH  16  52
BRANCH  20  54
HETATM   54  C30 UNL     1     -10.369  47.191 -17.413  1.00  0.00     0.479 C 
BRANCH  54  55
HETATM   55  N1  UNL     1     -10.156  48.154 -16.370  1.00  0.00     0.116 N 
HETATM   56  H36 UNL     1     -10.775  47.884 -15.598  1.00  0.00     0.316 HD
HETATM   57  H37 UNL     1     -10.543  49.043 -16.695  1.00  0.00     0.316 HD
ENDBRANCH  54  55
BRANCH  54  58
HETATM   58  N2  UNL     1     -11.694  47.524 -17.850  1.00  0.00     0.116 N 
HETATM   59  H38 UNL     1     -11.632  48.322 -18.479  1.00  0.00     0.316 HD
HETATM   60  H39 UNL     1     -12.072  46.763 -18.402  1.00  0.00     0.316 HD
ENDBRANCH  54  58
ENDBRANCH  20  54
TORSDOF 15
ENDMDL
