MODEL 1
REMARK minimizedAffinity -8.13399506
REMARK CNNscore 0.197534874
REMARK CNNaffinity 7.41335821
REMARK  13 active torsions:
REMARK  status: ('A' for Active; 'I' for Inactive)
REMARK    1  A    between atoms: C2_2  and  C3_3 
REMARK    2  A    between atoms: C6_6  and  C7_7 
REMARK    3  A    between atoms: C7_7  and  C8_8 
REMARK    4  A    between atoms: C14_17  and  C15_18 
REMARK    5  A    between atoms: C15_18  and  O3_20 
REMARK    6  A    between atoms: C19_24  and  C20_25 
REMARK    7  A    between atoms: C20_25  and  C21_26 
REMARK    8  A    between atoms: C22_27  and  C23_28 
REMARK    9  A    between atoms: C27_32  and  C28_33 
REMARK   10  A    between atoms: C29_37  and  C30_38 
REMARK   11  A    between atoms: C30_38  and  C31_39 
REMARK   12  A    between atoms: C31_39  and  C32_40 
REMARK   13  A    between atoms: C32_40  and  O6_42 
ROOT
HETATM    1  C8  UNL     1      -1.656  50.020 -16.386  1.00  0.00     0.016 C 
HETATM    2  N1  UNL     1      -1.389  51.146 -16.981  1.00  0.00    -0.362 N 
ATOM      3  H1  UNL     1      -1.159  52.029 -16.526  1.00  0.00     0.165 HD
HETATM    4  C9  UNL     1      -1.474  50.927 -18.340  1.00  0.00     0.024 C 
HETATM    5  C10 UNL     1      -0.874  51.756 -19.208  1.00  0.00     0.014 A 
HETATM    6  C11 UNL     1      -0.835  51.651 -20.610  1.00  0.00     0.056 A 
HETATM    7  C12 UNL     1      -0.091  52.627 -21.203  1.00  0.00     0.046 A 
HETATM    8  C13 UNL     1       0.435  53.511 -20.181  1.00  0.00     0.180 A 
HETATM    9  O1  UNL     1       1.140  54.488 -20.394  1.00  0.00    -0.291 OA
HETATM   10  C14 UNL     1      -0.053  53.013 -18.795  1.00  0.00     0.197 A 
HETATM   11  C17 UNL     1      -0.099  52.411 -22.591  1.00  0.00    -0.023 A 
HETATM   12  C18 UNL     1       0.600  53.219 -23.620  1.00  0.00     0.051 C 
HETATM   13  C19 UNL     1      -0.908  51.285 -22.789  1.00  0.00     0.022 A 
HETATM   14  N3  UNL     1      -1.351  50.835 -21.550  1.00  0.00    -0.357 N 
HETATM   15  C29 UNL     1      -2.229  49.645 -18.620  1.00  0.00     0.046 C 
HETATM   16  C34 UNL     1      -1.887  48.864 -17.340  1.00  0.00     0.041 C 
HETATM   17  C35 UNL     1      -2.840  47.758 -16.935  1.00  0.00     0.017 C 
HETATM   18  H27 UNL     1      -1.983  50.060 -21.416  1.00  0.00     0.166 HD
ENDROOT
BRANCH  10  19
HETATM   19  C15 UNL     1       1.127  52.671 -17.922  1.00  0.00     0.274 C 
HETATM   20  O2  UNL     1       2.176  52.171 -18.315  1.00  0.00    -0.264 OA
BRANCH  19  21
HETATM   21  O3  UNL     1       0.865  53.012 -16.628  1.00  0.00    -0.326 OA
HETATM   22  C16 UNL     1       1.718  52.390 -15.664  1.00  0.00     0.213 C 
ENDBRANCH  19  21
ENDBRANCH  10  19
BRANCH  15  23
HETATM   23  C30 UNL     1      -3.722  49.870 -18.965  1.00  0.00     0.021 C 
BRANCH  23  24
HETATM   24  C31 UNL     1      -4.379  48.969 -20.015  1.00  0.00     0.112 C 
BRANCH  24  25
HETATM   25  C32 UNL     1      -4.957  49.727 -21.180  1.00  0.00     0.258 C 
HETATM   26  O5  UNL     1      -5.364  49.210 -22.211  1.00  0.00    -0.265 OA
BRANCH  25  27
HETATM   27  O6  UNL     1      -4.926  51.066 -20.931  1.00  0.00    -0.326 OA
HETATM   28  C33 UNL     1      -4.508  51.858 -22.041  1.00  0.00     0.213 C 
ENDBRANCH  25  27
ENDBRANCH  24  25
ENDBRANCH  23  24
ENDBRANCH  15  23
BRANCH   1  29
HETATM   29  C7  UNL     1      -1.666  49.814 -14.917  1.00  0.00     0.055 C 
BRANCH  29  30
HETATM   30  C6  UNL     1      -2.148  50.721 -14.061  1.00  0.00     0.043 A 
HETATM   31  C4  UNL     1      -1.742  50.991 -12.693  1.00  0.00    -0.019 A 
HETATM   32  C3  UNL     1      -2.482  51.992 -12.163  1.00  0.00     0.039 A 
HETATM   33  C5  UNL     1      -0.638  50.216 -12.049  1.00  0.00     0.052 C 
HETATM   34  C36 UNL     1      -3.429  52.411 -13.252  1.00  0.00     0.256 A 
HETATM   35  N4  UNL     1      -3.147  51.602 -14.324  1.00  0.00    -0.322 N 
HETATM   36  O7  UNL     1      -4.266  53.292 -13.213  1.00  0.00    -0.267 OA
HETATM   37  H40 UNL     1      -3.649  51.635 -15.206  1.00  0.00     0.169 HD
BRANCH  32  38
HETATM   38  C2  UNL     1      -2.403  52.556 -10.836  1.00  0.00     0.007 C 
HETATM   39  C1  UNL     1      -3.020  53.664 -10.407  1.00  0.00     0.012 C 
ENDBRANCH  32  38
ENDBRANCH  29  30
ENDBRANCH   1  29
BRANCH  13  40
HETATM   40  C20 UNL     1      -1.302  50.587 -24.056  1.00  0.00     0.115 C 
BRANCH  40  41
HETATM   41  C21 UNL     1      -0.655  51.184 -25.269  1.00  0.00     0.022 A 
HETATM   42  C22 UNL     1      -1.197  51.867 -26.348  1.00  0.00    -0.027 A 
HETATM   43  C25 UNL     1      -0.104  52.230 -27.206  1.00  0.00    -0.024 A 
HETATM   44  C26 UNL     1      -0.194  52.993 -28.488  1.00  0.00     0.051 C 
HETATM   45  C27 UNL     1       1.062  51.747 -26.624  1.00  0.00     0.077 A 
HETATM   46  N2  UNL     1       0.706  51.140 -25.443  1.00  0.00    -0.356 N 
HETATM   47  H26 UNL     1       1.355  50.721 -24.789  1.00  0.00     0.166 HD
BRANCH  42  48
HETATM   48  C23 UNL     1      -2.650  52.178 -26.568  1.00  0.00     0.036 C 
HETATM   49  C24 UNL     1      -3.349  51.106 -27.390  1.00  0.00     0.010 C 
ENDBRANCH  42  48
BRANCH  45  50
HETATM   50  C28 UNL     1       2.429  51.835 -27.091  1.00  0.00     0.288 C 
HETATM   51  O4  UNL     1       3.312  51.009 -26.878  1.00  0.00    -0.300 OA
ENDBRANCH  45  50
ENDBRANCH  40  41
ENDBRANCH  13  40
TORSDOF 13
ENDMDL
