MODEL 1
REMARK minimizedAffinity -9.83017445
REMARK  4 active torsions:
REMARK  status: ('A' for Active; 'I' for Inactive)
REMARK    1  A    between atoms: C3_8  and  C4_9 
REMARK       I    between atoms: N4_17  and  C11_18 
REMARK    2  A    between atoms: C11_18  and  C12_20 
REMARK    3  A    between atoms: C12_20  and  O3_21 
REMARK    4  A    between atoms: O3_21  and  C13_22 
ROOT
HETATM    1  C4  UNL     1      -0.261  52.037 -24.389  1.00  0.00     0.011 A 
HETATM    2  C5  UNL     1      -1.386  51.204 -24.224  1.00  0.00     0.018 A 
HETATM    3  C6  UNL     1      -1.738  50.698 -22.968  1.00  0.00     0.039 A 
HETATM    4  C7  UNL     1      -0.964  51.033 -21.868  1.00  0.00     0.090 A 
HETATM    5  O1  UNL     1      -1.347  50.598 -20.623  1.00  0.00    -0.347 OA
HETATM    6  C8  UNL     1      -1.856  51.687 -19.818  1.00  0.00     0.213 C 
HETATM    7  C9  UNL     1      -1.221  51.680 -18.398  1.00  0.00     0.265 C 
HETATM    8  C10 UNL     1      -1.577  50.312 -17.741  1.00  0.00     0.163 C 
HETATM    9  N4  UNL     1      -1.088  50.254 -16.365  1.00  0.00    -0.346 N 
HETATM   10  C11 UNL     1      -1.961  50.656 -15.349  1.00  0.00     0.244 C 
HETATM   11  O2  UNL     1      -3.115  51.005 -15.596  1.00  0.00    -0.271 OA
HETATM   12  C19 UNL     1       0.358  50.425 -16.287  1.00  0.00     0.156 C 
HETATM   13  C20 UNL     1       0.754  51.773 -16.926  1.00  0.00     0.293 C 
HETATM   14  N5  UNL     1       0.277  51.927 -18.330  1.00  0.00     0.106 N 
HETATM   15  C21 UNL     1       0.669  53.298 -18.799  1.00  0.00     0.369 C 
HETATM   16  C22 UNL     1       0.886  53.343 -20.318  1.00  0.00     0.230 C 
HETATM   17  O4  UNL     1       0.953  54.396 -20.944  1.00  0.00    -0.278 OA
HETATM   18  N6  UNL     1       0.961  52.073 -20.873  1.00  0.00    -0.225 NA
HETATM   19  C23 UNL     1       0.181  51.826 -22.021  1.00  0.00     0.049 A 
HETATM   20  C24 UNL     1       0.512  52.361 -23.265  1.00  0.00     0.042 A 
HETATM   21  H25 UNL     1       0.776  51.389 -20.132  1.00  0.00     0.136 HD
ENDROOT
BRANCH  10  22
HETATM   22  C12 UNL     1      -1.410  50.611 -13.913  1.00  0.00     0.278 C 
BRANCH  22  23
HETATM   23  O3  UNL     1      -1.064  51.865 -13.344  1.00  0.00    -0.342 OA
BRANCH  23  24
HETATM   24  C13 UNL     1      -1.913  52.401 -12.415  1.00  0.00     0.069 A 
HETATM   25  C14 UNL     1      -3.307  52.411 -12.479  1.00  0.00     0.037 A 
HETATM   26  C15 UNL     1      -4.054  53.000 -11.452  1.00  0.00     0.003 A 
HETATM   27  C16 UNL     1      -3.412  53.585 -10.362  1.00  0.00     0.000 A 
HETATM   28  C17 UNL     1      -2.021  53.586 -10.297  1.00  0.00     0.003 A 
HETATM   29  C18 UNL     1      -1.277  52.999 -11.323  1.00  0.00     0.037 A 
ENDBRANCH  23  24
ENDBRANCH  22  23
ENDBRANCH  10  22
BRANCH   1  30
HETATM   30  C3  UNL     1       0.038  52.558 -25.724  1.00  0.00     0.133 A 
HETATM   31  N1  UNL     1       1.128  52.254 -26.509  1.00  0.00    -0.280 N 
HETATM   32  C1  UNL     1       2.195  51.318 -26.266  1.00  0.00     0.179 C 
HETATM   33  N2  UNL     1       1.089  52.915 -27.684  1.00  0.00    -0.293 N 
HETATM   34  C2  UNL     1      -0.059  53.582 -27.574  1.00  0.00     0.199 A 
ATOM     35  H2  UNL     1       1.759  52.906 -28.453  1.00  0.00     0.188 HD
HETATM   36  N3  UNL     1      -0.739  53.377 -26.412  1.00  0.00    -0.336 N 
ATOM     37  H3  UNL     1      -1.641  53.766 -26.136  1.00  0.00     0.168 HD
ENDBRANCH   1  30
TORSDOF 4
ENDMDL
