MODEL 1
REMARK minimizedAffinity -8.86708069
REMARK  9 active torsions:
REMARK  status: ('A' for Active; 'I' for Inactive)
REMARK    1  A    between atoms: C12_14  and  C13_15 
REMARK    2  A    between atoms: C13_15  and  C15_17 
REMARK    3  A    between atoms: C15_17  and  C16_18 
REMARK    4  A    between atoms: C16_18  and  C17_19 
REMARK    5  A    between atoms: C18_20  and  C20_22 
REMARK    6  A    between atoms: C26_29  and  C27_30 
REMARK    7  A    between atoms: C27_30  and  C28_31 
REMARK    8  A    between atoms: C28_31  and  C29_32 
REMARK    9  A    between atoms: C29_32  and  O5_34 
ROOT
HETATM    1  C1  UNL     1       4.337   7.781   9.937  1.00  0.00     0.025 C 
HETATM    2  C2  UNL     1       3.228   7.158  10.353  1.00  0.00     0.015 C 
HETATM    3  C3  UNL     1       2.176   6.784   9.383  1.00  0.00     0.289 C 
HETATM    4  O1  UNL     1       2.046   7.211   8.249  1.00  0.00    -0.260 OA
HETATM    5  O2  UNL     1       1.369   5.872   9.981  1.00  0.00    -0.311 OA
HETATM    6  C4  UNL     1       1.896   5.516  11.267  1.00  0.00     0.142 C 
HETATM    7  C5  UNL     1       0.743   5.258  12.223  1.00  0.00     0.039 C 
HETATM    8  C6  UNL     1      -0.108   6.523  12.411  1.00  0.00     0.006 C 
HETATM    9  C7  UNL     1       0.742   7.630  13.071  1.00  0.00    -0.027 A 
HETATM   10  C8  UNL     1       0.255   8.117  14.441  1.00  0.00     0.011 C 
HETATM   11  C9  UNL     1      -1.266   8.312  14.604  1.00  0.00     0.011 C 
HETATM   12  C10 UNL     1      -2.125   7.625  13.532  1.00  0.00    -0.032 C 
HETATM   13  C11 UNL     1      -2.266   8.600  12.323  1.00  0.00     0.016 C 
HETATM   14  C12 UNL     1      -3.553   7.162  13.971  1.00  0.00    -0.002 C 
HETATM   15  C21 UNL     1      -3.863   6.022  12.956  1.00  0.00     0.006 C 
HETATM   16  C22 UNL     1      -2.535   5.597  12.308  1.00  0.00     0.011 C 
HETATM   17  C23 UNL     1      -1.442   6.257  13.169  1.00  0.00    -0.032 C 
HETATM   18  C24 UNL     1      -1.217   5.301  14.387  1.00  0.00     0.016 C 
HETATM   19  C25 UNL     1       1.340   8.714  12.195  1.00  0.00     0.022 A 
HETATM   20  C26 UNL     1       2.272   7.645  12.720  1.00  0.00    -0.021 A 
HETATM   21  C30 UNL     1       2.851   6.628  11.701  1.00  0.00     0.063 C 
ENDROOT
BRANCH  14  22
HETATM   22  C13 UNL     1      -4.718   8.195  14.074  1.00  0.00    -0.014 C 
HETATM   23  C14 UNL     1      -4.881   8.732  15.501  1.00  0.00     0.010 C 
BRANCH  22  24
HETATM   24  C15 UNL     1      -6.048   7.552  13.591  1.00  0.00     0.008 C 
BRANCH  24  25
HETATM   25  C16 UNL     1      -6.883   6.916  14.710  1.00  0.00     0.028 C 
BRANCH  25  26
HETATM   26  C17 UNL     1      -7.022   5.432  14.492  1.00  0.00    -0.017 C 
HETATM   27  C18 UNL     1      -7.679   4.814  13.493  1.00  0.00    -0.028 C 
HETATM   28  C19 UNL     1      -8.441   5.447  12.371  1.00  0.00     0.051 C 
BRANCH  27  29
HETATM   29  C20 UNL     1      -7.652   3.322  13.490  1.00  0.00     0.265 C 
HETATM   30  O3  UNL     1      -8.445   2.645  12.848  1.00  0.00    -0.302 OA
ENDBRANCH  27  29
ENDBRANCH  25  26
ENDBRANCH  24  25
ENDBRANCH  22  24
ENDBRANCH  14  22
BRANCH  20  31
HETATM   31  C27 UNL     1       3.224   7.963  13.885  1.00  0.00     0.021 C 
BRANCH  31  32
HETATM   32  C28 UNL     1       4.657   8.315  13.508  1.00  0.00     0.111 C 
BRANCH  32  33
HETATM   33  C29 UNL     1       5.671   7.687  14.424  1.00  0.00     0.139 C 
HETATM   34  O4  UNL     1       6.877   7.637  14.262  1.00  0.00    -0.650 OA
BRANCH  33  35
HETATM   35  O5  UNL     1       5.108   7.208  15.552  1.00  0.00    -0.776 OA
HETATM   36  H41 UNL     1       5.865   6.846  16.063  1.00  0.00     0.167 HD
ENDBRANCH  33  35
ENDBRANCH  32  33
ENDBRANCH  31  32
ENDBRANCH  20  31
TORSDOF 9
ENDMDL
