MODEL 1
REMARK minimizedAffinity -7.47200298
REMARK CNNscore 0.561752558
REMARK CNNaffinity 6.61061049
REMARK  16 active torsions:
REMARK  status: ('A' for Active; 'I' for Inactive)
REMARK    1  A    between atoms: C2_2  and  C4_4 
REMARK    2  A    between atoms: C4_4  and  C6_6 
REMARK    3  A    between atoms: C7_7  and  C8_8 
REMARK    4  A    between atoms: C8_8  and  C10_10 
REMARK    5  A    between atoms: C15_15  and  O1_16 
REMARK    6  A    between atoms: C19_21  and  O3_22 
REMARK    7  A    between atoms: O3_22  and  C20_23 
REMARK    8  A    between atoms: C20_23  and  C21_24 
REMARK    9  A    between atoms: C21_24  and  N1_25 
REMARK   10  A    between atoms: C21_24  and  C22_26 
REMARK   11  A    between atoms: C22_26  and  O4_27 
REMARK   12  A    between atoms: C22_26  and  C23_32 
REMARK   13  A    between atoms: O4_27  and  S1_28 
REMARK   14  A    between atoms: S1_28  and  O7_31 
REMARK   15  A    between atoms: C33_42  and  C34_43 
REMARK   16  A    between atoms: C34_43  and  O9_45 
ROOT
HETATM    1  C10 UNL     1      -5.808  46.140 -30.548  1.00  0.00     0.016 C 
HETATM    2  C11 UNL     1      -5.232  47.303 -29.718  1.00  0.00     0.011 C 
HETATM    3  C12 UNL     1      -6.312  47.609 -28.691  1.00  0.00     0.036 C 
HETATM    4  C13 UNL     1      -7.597  47.189 -29.351  1.00  0.00    -0.055 C 
HETATM    5  C14 UNL     1      -8.834  47.297 -28.819  1.00  0.00    -0.040 C 
HETATM    6  C15 UNL     1      -9.073  47.850 -27.436  1.00  0.00     0.179 C 
HETATM    7  C16 UNL     1     -10.148  47.172 -26.649  1.00  0.00     0.191 A 
HETATM    8  O2  UNL     1     -10.290  45.755 -26.867  1.00  0.00    -0.365 OA
HETATM    9  C17 UNL     1     -11.347  46.598 -27.353  1.00  0.00     0.100 A 
HETATM   10  C18 UNL     1     -12.626  46.449 -26.576  1.00  0.00     0.073 C 
HETATM   11  C19 UNL     1     -13.503  45.330 -27.145  1.00  0.00     0.124 C 
HETATM   12  C26 UNL     1     -13.730  45.542 -28.647  1.00  0.00     0.033 C 
HETATM   13  C27 UNL     1     -12.397  45.618 -29.396  1.00  0.00     0.015 C 
HETATM   14  C28 UNL     1     -11.439  46.734 -28.874  1.00  0.00    -0.002 C 
HETATM   15  C29 UNL     1     -12.076  48.113 -29.213  1.00  0.00     0.019 C 
HETATM   16  C30 UNL     1     -10.013  46.690 -29.591  1.00  0.00     0.029 C 
HETATM   17  C31 UNL     1      -9.580  45.285 -30.079  1.00  0.00     0.011 C 
HETATM   18  C32 UNL     1      -8.201  45.210 -30.774  1.00  0.00     0.026 C 
HETATM   19  C33 UNL     1      -7.324  46.485 -30.675  1.00  0.00     0.073 C 
ENDROOT
BRANCH  11  20
HETATM   20  O3  UNL     1     -14.785  45.353 -26.503  1.00  0.00    -0.384 OA
BRANCH  20  21
HETATM   21  C20 UNL     1     -15.328  44.033 -26.294  1.00  0.00     0.206 C 
BRANCH  21  22
HETATM   22  C21 UNL     1     -16.038  44.016 -24.920  1.00  0.00     0.272 C 
BRANCH  22  23
HETATM   23  N1  UNL     1     -15.071  43.558 -23.889  1.00  0.00     0.087 N 
HETATM   24  H32 UNL     1     -14.676  42.681 -24.240  1.00  0.00     0.313 HD
HETATM   25  H33 UNL     1     -14.263  44.193 -23.882  1.00  0.00     0.313 HD
ENDBRANCH  22  23
BRANCH  22  26
HETATM   26  C22 UNL     1     -16.668  45.372 -24.486  1.00  0.00     0.182 C 
BRANCH  26  27
HETATM   27  O4  UNL     1     -18.052  45.229 -24.148  1.00  0.00    -0.256 OA
BRANCH  27  28
HETATM   28  S1  UNL     1     -19.142  46.042 -25.039  1.00  0.00     0.240 S 
HETATM   29  O5  UNL     1     -19.030  47.451 -24.727  1.00  0.00    -0.579 OA
HETATM   30  O6  UNL     1     -19.094  45.539 -26.394  1.00  0.00    -0.579 OA
BRANCH  28  31
HETATM   31  O7  UNL     1     -20.535  45.573 -24.383  1.00  0.00    -0.274 OA
HETATM   32  H35 UNL     1     -20.748  46.200 -23.665  1.00  0.00     0.234 HD
ENDBRANCH  28  31
ENDBRANCH  27  28
ENDBRANCH  26  27
BRANCH  26  33
HETATM   33  C23 UNL     1     -15.929  46.063 -23.305  1.00  0.00     0.010 C 
HETATM   34  C24 UNL     1     -15.358  47.415 -23.756  1.00  0.00     0.012 C 
HETATM   35  C25 UNL     1     -16.782  46.283 -22.055  1.00  0.00     0.012 C 
ENDBRANCH  26  33
ENDBRANCH  22  26
ENDBRANCH  21  22
ENDBRANCH  20  21
ENDBRANCH  11  20
BRANCH   6  36
HETATM   36  O1  UNL     1      -9.405  49.229 -27.581  1.00  0.00    -0.388 OA
HETATM   37  H24 UNL     1      -9.256  49.643 -26.716  1.00  0.00     0.210 HD
ENDBRANCH   6  36
BRANCH  19  38
HETATM   38  C34 UNL     1      -7.650  47.438 -31.843  1.00  0.00     0.153 C 
HETATM   39  O8  UNL     1      -7.460  48.644 -31.870  1.00  0.00    -0.649 OA
BRANCH  38  40
HETATM   40  O9  UNL     1      -8.154  46.838 -32.944  1.00  0.00    -0.776 OA
HETATM   41  H55 UNL     1      -8.220  47.575 -33.586  1.00  0.00     0.167 HD
ENDBRANCH  38  40
ENDBRANCH  19  38
BRANCH   1  42
HETATM   42  C8  UNL     1      -4.983  45.887 -31.842  1.00  0.00     0.009 C 
HETATM   43  C9  UNL     1      -5.097  47.014 -32.873  1.00  0.00     0.014 C 
BRANCH  42  44
HETATM   44  C7  UNL     1      -5.330  44.567 -32.520  1.00  0.00    -0.026 C 
HETATM   45  C6  UNL     1      -4.517  43.500 -32.608  1.00  0.00    -0.026 C 
BRANCH  45  46
HETATM   46  C4  UNL     1      -4.864  42.209 -33.320  1.00  0.00     0.007 C 
HETATM   47  C5  UNL     1      -3.988  42.078 -34.573  1.00  0.00     0.014 C 
BRANCH  46  48
HETATM   48  C2  UNL     1      -6.391  42.120 -33.600  1.00  0.00    -0.015 C 
HETATM   49  C1  UNL     1      -7.164  43.414 -33.318  1.00  0.00     0.010 C 
HETATM   50  C3  UNL     1      -6.682  41.658 -35.032  1.00  0.00     0.010 C 
ENDBRANCH  46  48
ENDBRANCH  45  46
ENDBRANCH  42  44
ENDBRANCH   1  42
TORSDOF 16
ENDMDL
