MODEL 1
REMARK minimizedAffinity -9.66723156
REMARK  8 active torsions:
REMARK  status: ('A' for Active; 'I' for Inactive)
REMARK    1  A    between atoms: C4_4  and  C5_5 
REMARK    2  A    between atoms: C5_5  and  C6_6 
REMARK    3  A    between atoms: C6_6  and  C7_7 
REMARK    4  A    between atoms: C7_7  and  C9_9 
REMARK    5  A    between atoms: C25_26  and  C27_28 
REMARK    6  A    between atoms: C27_28  and  O3_30 
REMARK    7  A    between atoms: C28_31  and  O4_32 
REMARK    8  A    between atoms: C30_34  and  O5_35 
ROOT
HETATM    1  C9  UNL     1      -2.257  48.820 -18.477  1.00  0.00    -0.002 C 
HETATM    2  C10 UNL     1      -3.264  47.825 -19.121  1.00  0.00     0.007 C 
HETATM    3  C11 UNL     1      -3.252  48.085 -20.640  1.00  0.00     0.015 C 
HETATM    4  C12 UNL     1      -1.983  48.920 -20.898  1.00  0.00    -0.005 C 
HETATM    5  C13 UNL     1      -0.785  47.920 -20.975  1.00  0.00     0.021 C 
HETATM    6  C14 UNL     1      -1.848  49.766 -22.162  1.00  0.00    -0.000 C 
HETATM    7  C15 UNL     1      -1.099  50.902 -22.172  1.00  0.00    -0.058 C 
HETATM    8  C16 UNL     1      -0.425  51.398 -20.879  1.00  0.00     0.036 C 
HETATM    9  C17 UNL     1      -0.677  50.604 -19.582  1.00  0.00     0.015 C 
HETATM   10  C18 UNL     1      -2.010  49.854 -19.620  1.00  0.00    -0.028 C 
HETATM   11  C19 UNL     1      -3.155  50.906 -19.672  1.00  0.00     0.016 C 
HETATM   12  C20 UNL     1      -0.909  51.800 -23.437  1.00  0.00     0.011 C 
HETATM   13  C21 UNL     1      -1.927  52.954 -23.269  1.00  0.00     0.023 C 
HETATM   14  C22 UNL     1      -1.158  50.934 -24.717  1.00  0.00     0.029 C 
HETATM   15  C23 UNL     1      -2.481  50.170 -24.637  1.00  0.00     0.090 C 
HETATM   16  C24 UNL     1      -2.544  49.305 -23.405  1.00  0.00     0.157 C 
HETATM   17  O1  UNL     1      -3.204  48.266 -23.424  1.00  0.00    -0.293 OA
HETATM   18  C25 UNL     1      -0.937  51.648 -26.107  1.00  0.00     0.072 C 
HETATM   19  C26 UNL     1      -0.324  50.606 -27.085  1.00  0.00     0.030 C 
HETATM   20  C28 UNL     1       0.003  52.877 -25.975  1.00  0.00     0.139 C 
HETATM   21  C29 UNL     1       1.094  52.656 -24.934  1.00  0.00     0.065 C 
HETATM   22  C30 UNL     1       0.567  52.343 -23.529  1.00  0.00     0.133 C 
ENDROOT
BRANCH   1  23
HETATM   23  C7  UNL     1      -2.650  49.202 -17.018  1.00  0.00    -0.014 C 
HETATM   24  C8  UNL     1      -2.974  50.682 -16.766  1.00  0.00     0.010 C 
BRANCH  23  25
HETATM   25  C6  UNL     1      -1.672  48.724 -15.914  1.00  0.00     0.008 C 
BRANCH  25  26
HETATM   26  C5  UNL     1      -0.179  48.792 -16.275  1.00  0.00     0.028 C 
BRANCH  26  27
HETATM   27  C4  UNL     1       0.345  50.180 -16.502  1.00  0.00    -0.025 C 
HETATM   28  C2  UNL     1       1.227  50.870 -15.752  1.00  0.00    -0.091 C 
HETATM   29  C1  UNL     1       1.874  50.370 -14.490  1.00  0.00     0.042 C 
HETATM   30  C3  UNL     1       1.661  52.254 -16.159  1.00  0.00     0.042 C 
ENDBRANCH  26  27
ENDBRANCH  25  26
ENDBRANCH  23  25
ENDBRANCH   1  23
BRANCH  22  31
HETATM   31  O5  UNL     1       0.768  53.495 -22.704  1.00  0.00    -0.394 OA
HETATM   32  H46 UNL     1       0.296  54.251 -23.094  1.00  0.00     0.210 HD
ENDBRANCH  22  31
BRANCH  18  33
HETATM   33  C27 UNL     1      -2.254  52.108 -26.742  1.00  0.00     0.151 C 
HETATM   34  O2  UNL     1      -3.018  52.963 -26.329  1.00  0.00    -0.649 OA
BRANCH  33  35
HETATM   35  O3  UNL     1      -2.536  51.511 -27.915  1.00  0.00    -0.776 OA
HETATM   36  H40 UNL     1      -3.394  51.913 -28.172  1.00  0.00     0.167 HD
ENDBRANCH  33  35
ENDBRANCH  18  33
BRANCH  20  37
HETATM   37  O4  UNL     1       0.630  53.173 -27.227  1.00  0.00    -0.394 OA
HETATM   38  H42 UNL     1       1.126  54.005 -27.127  1.00  0.00     0.210 HD
ENDBRANCH  20  37
TORSDOF 8
ENDMDL
