MODEL 1
REMARK minimizedAffinity -7.9065814
REMARK CNNscore 0.689607501
REMARK CNNaffinity 6.80677605
REMARK  12 active torsions:
REMARK  status: ('A' for Active; 'I' for Inactive)
REMARK    1  A    between atoms: C4_4  and  C5_5 
REMARK    2  A    between atoms: C5_5  and  C6_7 
REMARK    3  A    between atoms: C6_7  and  C7_8 
REMARK    4  A    between atoms: C7_8  and  C9_10 
REMARK    5  A    between atoms: C15_16  and  O2_17 
REMARK    6  A    between atoms: O2_17  and  C16_18 
REMARK    7  A    between atoms: C17_20  and  C18_21 
REMARK    8  A    between atoms: C18_21  and  O4_22 
REMARK    9  A    between atoms: C19_23  and  O5_24 
REMARK   10  A    between atoms: C20_25  and  O6_26 
REMARK   11  A    between atoms: C21_27  and  O7_28 
REMARK   12  A    between atoms: C24_31  and  O8_32 
ROOT
HETATM    1  C9  UNL     1      -0.391   7.879  13.199  1.00  0.00    -0.002 C 
HETATM    2  C10 UNL     1       0.252   6.836  14.142  1.00  0.00     0.006 C 
HETATM    3  C11 UNL     1       0.042   7.374  15.571  1.00  0.00     0.006 C 
HETATM    4  C12 UNL     1      -0.617   8.741  15.379  1.00  0.00     0.002 C 
HETATM    5  C13 UNL     1      -1.422   9.324  16.550  1.00  0.00     0.022 C 
HETATM    6  C14 UNL     1      -0.523   9.622  17.767  1.00  0.00     0.042 C 
HETATM    7  C15 UNL     1      -0.162  11.096  17.962  1.00  0.00     0.130 C 
HETATM    8  C22 UNL     1      -1.342  12.099  17.785  1.00  0.00     0.029 C 
HETATM    9  C23 UNL     1      -1.596  13.043  18.977  1.00  0.00     0.039 C 
HETATM   10  C24 UNL     1      -2.560  14.177  18.606  1.00  0.00     0.118 C 
HETATM   11  C25 UNL     1      -3.836  13.686  17.920  1.00  0.00     0.033 C 
HETATM   12  C26 UNL     1      -3.553  12.692  16.783  1.00  0.00     0.016 C 
HETATM   13  C27 UNL     1      -2.664  11.489  17.227  1.00  0.00    -0.014 C 
HETATM   14  C28 UNL     1      -3.495  10.684  18.260  1.00  0.00     0.020 C 
HETATM   15  C29 UNL     1      -2.223  10.552  16.088  1.00  0.00    -0.070 C 
HETATM   16  C30 UNL     1      -2.418  10.807  14.774  1.00  0.00    -0.022 C 
HETATM   17  C31 UNL     1      -1.908   9.956  13.629  1.00  0.00     0.037 C 
HETATM   18  C32 UNL     1      -1.465   8.559  14.093  1.00  0.00    -0.033 C 
HETATM   19  C33 UNL     1      -2.725   7.689  14.311  1.00  0.00     0.016 C 
ENDROOT
BRANCH   7  20
HETATM   20  O2  UNL     1       0.432  11.265  19.258  1.00  0.00    -0.353 OA
BRANCH  20  21
HETATM   21  C16 UNL     1       1.841  10.996  19.288  1.00  0.00     0.292 C 
HETATM   22  O3  UNL     1       2.167   9.959  20.215  1.00  0.00    -0.348 OA
HETATM   23  C17 UNL     1       2.385  10.443  21.550  1.00  0.00     0.179 C 
HETATM   24  C19 UNL     1       3.711  11.235  21.571  1.00  0.00     0.180 C 
HETATM   25  C20 UNL     1       3.888  12.071  20.279  1.00  0.00     0.183 C 
HETATM   26  C21 UNL     1       2.550  12.341  19.598  1.00  0.00     0.204 C 
BRANCH  23  27
HETATM   27  C18 UNL     1       2.331   9.263  22.535  1.00  0.00     0.198 C 
BRANCH  27  28
HETATM   28  O4  UNL     1       1.926   8.037  21.930  1.00  0.00    -0.398 OA
HETATM   29  H28 UNL     1       2.621   7.824  21.275  1.00  0.00     0.209 HD
ENDBRANCH  27  28
ENDBRANCH  23  27
BRANCH  24  30
HETATM   30  O5  UNL     1       4.840  10.346  21.697  1.00  0.00    -0.390 OA
HETATM   31  H30 UNL     1       4.877   9.815  20.877  1.00  0.00     0.210 HD
ENDBRANCH  24  30
BRANCH  25  32
HETATM   32  O6  UNL     1       4.525  13.319  20.587  1.00  0.00    -0.390 OA
HETATM   33  H32 UNL     1       3.833  13.878  20.992  1.00  0.00     0.210 HD
ENDBRANCH  25  32
BRANCH  26  34
HETATM   34  O7  UNL     1       1.757  13.167  20.485  1.00  0.00    -0.388 OA
HETATM   35  H34 UNL     1       0.828  12.941  20.266  1.00  0.00     0.210 HD
ENDBRANCH  26  34
ENDBRANCH  20  21
ENDBRANCH   7  20
BRANCH  10  36
HETATM   36  O8  UNL     1      -1.899  15.077  17.716  1.00  0.00    -0.396 OA
HETATM   37  H39 UNL     1      -1.156  15.476  18.203  1.00  0.00     0.210 HD
ENDBRANCH  10  36
BRANCH   1  38
HETATM   38  C7  UNL     1      -0.752   7.387  11.774  1.00  0.00    -0.007 C 
HETATM   39  C8  UNL     1      -0.303   5.963  11.416  1.00  0.00     0.011 C 
BRANCH  38  40
HETATM   40  C6  UNL     1      -0.139   8.365  10.739  1.00  0.00     0.087 C 
BRANCH  40  41
HETATM   41  C5  UNL     1       1.211   7.908  10.202  1.00  0.00     0.149 C 
HETATM   42  O1  UNL     1       2.230   7.959  10.884  1.00  0.00    -0.293 OA
BRANCH  41  43
HETATM   43  C4  UNL     1       1.209   7.356   8.808  1.00  0.00     0.052 C 
HETATM   44  C2  UNL     1       2.038   7.724   7.812  1.00  0.00    -0.084 C 
HETATM   45  C1  UNL     1       3.126   8.754   7.951  1.00  0.00     0.043 C 
HETATM   46  C3  UNL     1       1.921   7.100   6.448  1.00  0.00     0.043 C 
ENDBRANCH  41  43
ENDBRANCH  40  41
ENDBRANCH  38  40
ENDBRANCH   1  38
TORSDOF 12
ENDMDL
