MODEL 1
REMARK minimizedAffinity -9.39871693
REMARK  12 active torsions:
REMARK  status: ('A' for Active; 'I' for Inactive)
REMARK    1  A    between atoms: C2_2  and  C3_3 
REMARK    2  A    between atoms: C2_2  and  C5_6 
REMARK    3  A    between atoms: C3_3  and  C4_4 
REMARK    4  A    between atoms: C4_4  and  O1_5 
REMARK    5  A    between atoms: C5_6  and  C6_7 
REMARK    6  A    between atoms: C6_7  and  C7_8 
REMARK    7  A    between atoms: C7_8  and  C9_10 
REMARK    8  A    between atoms: C10_11  and  O2_12 
REMARK    9  A    between atoms: C11_13  and  O3_14 
REMARK   10  A    between atoms: C22_25  and  O4_26 
REMARK   11  A    between atoms: C25_29  and  O5_30 
REMARK   12  A    between atoms: C27_32  and  O6_33 
ROOT
HETATM    1  C9  UNL     1      -3.535   4.527  13.211  1.00  0.00     0.029 C 
HETATM    2  C10 UNL     1      -4.244   5.899  13.415  1.00  0.00     0.152 C 
HETATM    3  C11 UNL     1      -3.156   6.996  13.315  1.00  0.00     0.155 C 
HETATM    4  C12 UNL     1      -2.097   6.333  12.442  1.00  0.00     0.060 C 
HETATM    5  C13 UNL     1      -2.019   4.903  13.051  1.00  0.00    -0.029 C 
HETATM    6  C14 UNL     1      -1.417   4.838  14.492  1.00  0.00     0.016 C 
HETATM    7  C15 UNL     1      -1.140   4.019  12.152  1.00  0.00     0.011 C 
HETATM    8  C16 UNL     1       0.241   4.652  11.895  1.00  0.00     0.009 C 
HETATM    9  C17 UNL     1       0.138   6.091  11.323  1.00  0.00     0.029 C 
HETATM   10  C18 UNL     1       1.527   6.681  10.862  1.00  0.00    -0.031 C 
HETATM   11  C19 UNL     1       2.593   6.623  11.983  1.00  0.00     0.016 C 
HETATM   12  C20 UNL     1       2.066   5.791   9.682  1.00  0.00     0.012 C 
HETATM   13  C21 UNL     1       2.861   6.583   8.654  1.00  0.00     0.032 C 
HETATM   14  C22 UNL     1       1.977   7.623   7.966  1.00  0.00     0.118 C 
HETATM   15  C23 UNL     1       0.914   8.217   8.897  1.00  0.00     0.039 C 
HETATM   16  C24 UNL     1       1.375   8.171  10.369  1.00  0.00     0.025 C 
HETATM   17  C25 UNL     1       0.465   9.046  11.249  1.00  0.00     0.126 C 
HETATM   18  C26 UNL     1      -0.883   8.400  11.564  1.00  0.00     0.071 C 
HETATM   19  C27 UNL     1      -0.726   7.023  12.239  1.00  0.00     0.071 C 
ENDROOT
BRANCH   1  20
HETATM   20  C7  UNL     1      -4.195   3.639  12.110  1.00  0.00    -0.011 C 
HETATM   21  C8  UNL     1      -3.526   3.692  10.726  1.00  0.00     0.010 C 
BRANCH  20  22
HETATM   22  C6  UNL     1      -5.701   3.970  11.912  1.00  0.00     0.005 C 
BRANCH  22  23
HETATM   23  C5  UNL     1      -6.656   2.931  12.516  1.00  0.00     0.005 C 
BRANCH  23  24
HETATM   24  C2  UNL     1      -7.876   3.553  13.236  1.00  0.00    -0.017 C 
HETATM   25  C1  UNL     1      -7.513   3.797  14.704  1.00  0.00     0.010 C 
BRANCH  24  26
HETATM   26  C3  UNL     1      -8.363   4.834  12.520  1.00  0.00     0.030 C 
BRANCH  26  27
HETATM   27  C4  UNL     1      -8.613   6.027  13.441  1.00  0.00     0.164 C 
BRANCH  27  28
HETATM   28  O1  UNL     1      -9.993   6.121  13.765  1.00  0.00    -0.401 OA
HETATM   29  H9  UNL     1     -10.096   6.884  14.360  1.00  0.00     0.209 HD
ENDBRANCH  27  28
ENDBRANCH  26  27
ENDBRANCH  24  26
ENDBRANCH  23  24
ENDBRANCH  22  23
ENDBRANCH  20  22
ENDBRANCH   1  20
BRANCH   2  30
HETATM   30  O2  UNL     1      -4.881   5.948  14.691  1.00  0.00    -0.393 OA
HETATM   31  H20 UNL     1      -5.312   6.819  14.748  1.00  0.00     0.210 HD
ENDBRANCH   2  30
BRANCH   3  32
HETATM   32  O3  UNL     1      -3.717   8.152  12.699  1.00  0.00    -0.392 OA
HETATM   33  H22 UNL     1      -3.497   8.907  13.276  1.00  0.00     0.210 HD
ENDBRANCH   3  32
BRANCH  19  34
HETATM   34  O6  UNL     1      -0.122   7.209  13.514  1.00  0.00    -0.389 OA
HETATM   35  H48 UNL     1       0.461   7.995  13.456  1.00  0.00     0.210 HD
ENDBRANCH  19  34
BRANCH  17  36
HETATM   36  O5  UNL     1       1.119   9.334  12.490  1.00  0.00    -0.395 OA
HETATM   37  H45 UNL     1       1.939   9.820  12.278  1.00  0.00     0.210 HD
ENDBRANCH  17  36
BRANCH  14  38
HETATM   38  O4  UNL     1       2.823   8.663   7.480  1.00  0.00    -0.396 OA
HETATM   39  H40 UNL     1       2.280   9.249   6.924  1.00  0.00     0.210 HD
ENDBRANCH  14  38
TORSDOF 12
ENDMDL
