MODEL 1
REMARK minimizedAffinity -9.94594193
REMARK  8 active torsions:
REMARK  status: ('A' for Active; 'I' for Inactive)
REMARK    1  A    between atoms: C2_2  and  C3_3 
REMARK    2  A    between atoms: C2_2  and  C11_14 
REMARK    3  A    between atoms: C3_3  and  C4_4 
REMARK    4  A    between atoms: C4_4  and  C5_5 
REMARK       I    between atoms: C5_5  and  N1_7 
REMARK    5  A    between atoms: N1_7  and  C6_8 
REMARK    6  A    between atoms: C6_8  and  C7_9 
REMARK    7  A    between atoms: C16_19  and  O3_20 
REMARK    8  A    between atoms: C20_24  and  O4_25 
ROOT
HETATM    1  C11 UNL     1      -5.643   6.765  13.615  1.00  0.00    -0.002 C 
HETATM    2  C12 UNL     1      -5.654   8.305  13.863  1.00  0.00     0.006 C 
HETATM    3  C13 UNL     1      -4.239   8.825  13.588  1.00  0.00     0.006 C 
HETATM    4  C14 UNL     1      -3.529   7.638  12.956  1.00  0.00     0.001 C 
HETATM    5  C15 UNL     1      -1.991   7.663  12.902  1.00  0.00     0.024 C 
HETATM    6  C16 UNL     1      -1.500   8.907  12.121  1.00  0.00     0.123 C 
HETATM    7  C17 UNL     1      -0.157   8.699  11.411  1.00  0.00     0.037 C 
HETATM    8  C18 UNL     1       0.731   7.735  12.209  1.00  0.00    -0.001 C 
HETATM    9  C19 UNL     1       2.206   7.789  11.757  1.00  0.00     0.037 C 
HETATM   10  C20 UNL     1       2.524   6.974  10.509  1.00  0.00     0.118 C 
HETATM   11  C21 UNL     1       2.031   5.539  10.649  1.00  0.00     0.032 C 
HETATM   12  C22 UNL     1       0.538   5.486  10.964  1.00  0.00     0.012 C 
HETATM   13  C23 UNL     1       0.115   6.292  12.226  1.00  0.00    -0.036 C 
HETATM   14  C24 UNL     1       0.667   5.574  13.483  1.00  0.00     0.016 C 
HETATM   15  C25 UNL     1      -1.472   6.360  12.238  1.00  0.00     0.001 C 
HETATM   16  C26 UNL     1      -2.150   5.080  12.787  1.00  0.00     0.007 C 
HETATM   17  C27 UNL     1      -3.681   5.178  12.889  1.00  0.00     0.010 C 
HETATM   18  C28 UNL     1      -4.122   6.414  13.696  1.00  0.00    -0.036 C 
HETATM   19  C29 UNL     1      -3.659   6.302  15.168  1.00  0.00     0.016 C 
ENDROOT
BRANCH   1  20
HETATM   20  C2  UNL     1      -6.659   6.027  14.541  1.00  0.00    -0.013 C 
HETATM   21  C1  UNL     1      -6.304   6.164  16.023  1.00  0.00     0.010 C 
BRANCH  20  22
HETATM   22  C3  UNL     1      -6.761   4.527  14.140  1.00  0.00     0.014 C 
BRANCH  22  23
HETATM   23  C4  UNL     1      -7.898   4.209  13.161  1.00  0.00     0.103 C 
BRANCH  23  24
HETATM   24  C5  UNL     1      -8.755   5.404  12.778  1.00  0.00     0.217 C 
HETATM   25  O1  UNL     1      -8.749   5.919  11.666  1.00  0.00    -0.274 OA
HETATM   26  N1  UNL     1      -9.501   5.879  13.842  1.00  0.00    -0.359 N 
HETATM   27  H9  UNL     1      -9.554   5.309  14.675  1.00  0.00     0.162 HD
BRANCH  26  28
HETATM   28  C6  UNL     1     -10.542   6.874  13.644  1.00  0.00     0.154 C 
BRANCH  28  29
HETATM   29  C7  UNL     1     -10.829   7.671  14.932  1.00  0.00     0.139 C 
HETATM   30  C8  UNL     1      -9.579   7.895  15.767  1.00  0.00     0.035 C 
HETATM   31  C9  UNL     1      -9.019   9.168  15.183  1.00  0.00     0.029 C 
HETATM   32  C10 UNL     1     -10.272   9.941  14.827  1.00  0.00     0.168 C 
HETATM   33  O2  UNL     1     -11.321   8.986  14.613  1.00  0.00    -0.384 OA
ENDBRANCH  28  29
ENDBRANCH  26  28
ENDBRANCH  23  24
ENDBRANCH  22  23
ENDBRANCH  20  22
ENDBRANCH   1  20
BRANCH   6  34
HETATM   34  O3  UNL     1      -1.374   9.985  13.051  1.00  0.00    -0.395 OA
HETATM   35  H27 UNL     1      -1.133  10.780  12.545  1.00  0.00     0.210 HD
ENDBRANCH   6  34
BRANCH  10  36
HETATM   36  O4  UNL     1       1.927   7.592   9.374  1.00  0.00    -0.396 OA
HETATM   37  H34 UNL     1       2.159   7.059   8.593  1.00  0.00     0.210 HD
ENDBRANCH  10  36
TORSDOF 8
ENDMDL
