MODEL 1
REMARK minimizedAffinity -7.65094995
REMARK CNNscore 0.630414665
REMARK CNNaffinity 6.93462372
REMARK  4 active torsions:
REMARK  status: ('A' for Active; 'I' for Inactive)
REMARK    1  A    between atoms: C4_4  and  C5_5 
REMARK    2  A    between atoms: C5_5  and  C6_6 
REMARK    3  A    between atoms: C6_6  and  C7_7 
REMARK    4  A    between atoms: C7_7  and  C9_9 
ROOT
HETATM    1  C9  UNL     1       3.152  54.222  -9.507  1.00  0.00    -0.001 C 
HETATM    2  C10 UNL     1       3.448  53.240  -8.346  1.00  0.00     0.007 C 
HETATM    3  C11 UNL     1       2.148  52.446  -8.088  1.00  0.00     0.024 C 
HETATM    4  C12 UNL     1       1.195  52.896  -9.176  1.00  0.00     0.092 C 
HETATM    5  C13 UNL     1       1.329  52.031 -10.460  1.00  0.00     0.272 C 
HETATM    6  O1  UNL     1       2.294  51.383 -10.828  1.00  0.00    -0.264 OA
HETATM    7  O2  UNL     1       0.139  52.104 -11.163  1.00  0.00    -0.305 OA
HETATM    8  C14 UNL     1      -0.789  52.931 -10.423  1.00  0.00     0.113 C 
HETATM    9  C15 UNL     1      -0.537  54.405 -10.889  1.00  0.00     0.043 C 
HETATM   10  C16 UNL     1       0.956  54.830 -10.806  1.00  0.00     0.014 C 
HETATM   11  C17 UNL     1       1.603  54.381  -9.474  1.00  0.00    -0.020 C 
HETATM   12  C18 UNL     1       1.132  55.347  -8.363  1.00  0.00     0.017 C 
HETATM   13  C19 UNL     1      -0.268  52.763  -9.023  1.00  0.00     0.137 A 
HETATM   14  O3  UNL     1      -0.965  53.270  -7.901  1.00  0.00    -0.364 OA
HETATM   15  C20 UNL     1      -0.923  51.834  -8.022  1.00  0.00     0.162 A 
HETATM   16  C21 UNL     1      -2.235  51.187  -8.353  1.00  0.00     0.042 C 
HETATM   17  C22 UNL     1      -2.361  50.998  -9.879  1.00  0.00     0.014 C 
HETATM   18  C23 UNL     1      -3.519  50.052 -10.346  1.00  0.00     0.018 C 
HETATM   19  C24 UNL     1      -3.342  48.648  -9.725  1.00  0.00     0.023 C 
HETATM   20  C25 UNL     1      -4.932  50.546 -10.013  1.00  0.00     0.023 C 
HETATM   21  C26 UNL     1      -3.433  49.882 -11.872  1.00  0.00     0.135 C 
HETATM   22  O4  UNL     1      -4.129  49.064 -12.475  1.00  0.00    -0.297 OA
HETATM   23  C27 UNL     1      -2.447  50.748 -12.621  1.00  0.00     0.080 C 
HETATM   24  C28 UNL     1      -2.578  52.186 -12.144  1.00  0.00     0.020 C 
HETATM   25  C29 UNL     1      -2.258  52.390 -10.630  1.00  0.00    -0.004 C 
HETATM   26  C30 UNL     1      -3.261  53.449 -10.096  1.00  0.00     0.019 C 
ENDROOT
BRANCH   1  27
HETATM   27  C7  UNL     1       4.104  55.434  -9.700  1.00  0.00    -0.014 C 
HETATM   28  C8  UNL     1       3.615  56.285 -10.890  1.00  0.00     0.010 C 
BRANCH  27  29
HETATM   29  C6  UNL     1       5.636  55.258  -9.802  1.00  0.00     0.008 C 
BRANCH  29  30
HETATM   30  C5  UNL     1       6.417  55.071  -8.501  1.00  0.00     0.028 C 
BRANCH  30  31
HETATM   31  C4  UNL     1       6.049  56.136  -7.500  1.00  0.00    -0.025 C 
HETATM   32  C2  UNL     1       6.758  56.564  -6.439  1.00  0.00    -0.091 C 
HETATM   33  C1  UNL     1       6.224  57.663  -5.557  1.00  0.00     0.042 C 
HETATM   34  C3  UNL     1       8.102  56.039  -6.017  1.00  0.00     0.042 C 
ENDBRANCH  30  31
ENDBRANCH  29  30
ENDBRANCH  27  29
ENDBRANCH   1  27
TORSDOF 4
ENDMDL
