MODEL 1
REMARK minimizedAffinity -8.9910059
REMARK CNNscore 0.779578805
REMARK CNNaffinity 6.32546473
REMARK  14 active torsions:
REMARK  status: ('A' for Active; 'I' for Inactive)
REMARK    1  A    between atoms: C2_2  and  O1_3 
REMARK    2  A    between atoms: O1_3  and  C3_4 
REMARK    3  A    between atoms: C4_6  and  C5_7 
REMARK    4  A    between atoms: C5_7  and  O3_8 
REMARK    5  A    between atoms: C5_7  and  C6_9 
REMARK    6  A    between atoms: C6_9  and  O4_10 
REMARK    7  A    between atoms: O4_10  and  C7_11 
REMARK    8  A    between atoms: C12_16  and  C13_17 
REMARK    9  A    between atoms: C13_17  and  O5_19 
REMARK   10  A    between atoms: C13_17  and  C15_20 
REMARK   11  A    between atoms: C15_20  and  O6_21 
REMARK   12  A    between atoms: C18_24  and  O7_26 
REMARK   13  A    between atoms: C22_29  and  O8_30 
REMARK   14  A    between atoms: C23_31  and  O9_32 
ROOT
HETATM    1  C7  UNL     1      -0.221  52.092 -22.278  1.00  0.00     0.126 C 
HETATM    2  C8  UNL     1      -1.688  51.787 -22.023  1.00  0.00     0.040 C 
HETATM    3  C9  UNL     1      -1.751  51.363 -20.541  1.00  0.00     0.026 C 
HETATM    4  C10 UNL     1      -0.605  52.160 -19.858  1.00  0.00    -0.001 C 
HETATM    5  C11 UNL     1       0.266  51.473 -18.801  1.00  0.00     0.013 C 
HETATM    6  C12 UNL     1      -0.504  50.921 -17.577  1.00  0.00     0.022 C 
HETATM    7  C16 UNL     1      -1.011  49.499 -17.899  1.00  0.00     0.010 C 
HETATM    8  C17 UNL     1      -2.157  49.437 -18.901  1.00  0.00     0.038 C 
HETATM    9  C18 UNL     1      -1.867  49.829 -20.358  1.00  0.00     0.058 C 
HETATM   10  C19 UNL     1      -0.737  49.002 -20.980  1.00  0.00     0.046 C 
HETATM   11  C20 UNL     1       0.177  52.853 -21.013  1.00  0.00     0.015 C 
HETATM   12  C21 UNL     1       1.693  52.967 -20.883  1.00  0.00     0.013 C 
ENDROOT
BRANCH   1  13
HETATM   13  O4  UNL     1      -0.033  52.922 -23.420  1.00  0.00    -0.383 OA
BRANCH  13  14
HETATM   14  C6  UNL     1       0.154  52.168 -24.628  1.00  0.00     0.202 C 
BRANCH  14  15
HETATM   15  C5  UNL     1      -0.426  52.999 -25.778  1.00  0.00     0.173 C 
BRANCH  15  16
HETATM   16  C4  UNL     1      -1.092  52.125 -26.851  1.00  0.00     0.187 C 
HETATM   17  O2  UNL     1      -0.874  50.724 -26.537  1.00  0.00    -0.348 OA
HETATM   18  C3  UNL     1      -2.156  50.085 -26.419  1.00  0.00     0.291 C 
HETATM   19  C23 UNL     1      -3.075  50.892 -27.343  1.00  0.00     0.204 C 
HETATM   20  C22 UNL     1      -2.606  52.313 -27.064  1.00  0.00     0.183 C 
BRANCH  18  21
HETATM   21  O1  UNL     1      -2.643  50.139 -25.082  1.00  0.00    -0.359 OA
BRANCH  21  22
HETATM   22  C2  UNL     1      -3.069  48.861 -24.616  1.00  0.00     0.166 C 
HETATM   23  C1  UNL     1      -4.167  48.365 -25.536  1.00  0.00     0.033 C 
ENDBRANCH  21  22
ENDBRANCH  18  21
BRANCH  19  24
HETATM   24  O9  UNL     1      -2.845  50.560 -28.721  1.00  0.00    -0.388 OA
HETATM   25  H42 UNL     1      -1.891  50.386 -28.832  1.00  0.00     0.210 HD
ENDBRANCH  19  24
BRANCH  20  26
HETATM   26  O8  UNL     1      -3.285  52.854 -25.932  1.00  0.00    -0.390 OA
HETATM   27  H40 UNL     1      -2.862  52.464 -25.132  1.00  0.00     0.210 HD
ENDBRANCH  20  26
ENDBRANCH  15  16
BRANCH  15  28
HETATM   28  O3  UNL     1       0.627  53.802 -26.344  1.00  0.00    -0.391 OA
HETATM   29  H9  UNL     1       1.073  54.203 -25.570  1.00  0.00     0.210 HD
ENDBRANCH  15  28
ENDBRANCH  14  15
ENDBRANCH  13  14
ENDBRANCH   1  13
BRANCH   9  30
HETATM   30  O7  UNL     1      -3.064  49.454 -21.085  1.00  0.00    -0.390 OA
HETATM   31  H34 UNL     1      -3.178  48.492 -21.006  1.00  0.00     0.210 HD
ENDBRANCH   9  30
BRANCH   6  32
HETATM   32  C13 UNL     1       0.390  50.938 -16.277  1.00  0.00     0.079 C 
HETATM   33  C14 UNL     1      -0.398  51.425 -15.045  1.00  0.00     0.048 C 
BRANCH  32  34
HETATM   34  O5  UNL     1       0.819  49.595 -16.006  1.00  0.00    -0.388 OA
HETATM   35  H23 UNL     1       1.351  49.603 -15.191  1.00  0.00     0.210 HD
ENDBRANCH  32  34
BRANCH  32  36
HETATM   36  C15 UNL     1       1.646  51.845 -16.423  1.00  0.00     0.201 C 
BRANCH  36  37
HETATM   37  O6  UNL     1       1.394  53.198 -16.071  1.00  0.00    -0.398 OA
HETATM   38  H26 UNL     1       1.267  53.241 -15.107  1.00  0.00     0.209 HD
ENDBRANCH  36  37
ENDBRANCH  32  36
ENDBRANCH   6  32
TORSDOF 14
ENDMDL
