MODEL 1
REMARK minimizedAffinity -8.4940567
REMARK CNNscore 0.433794826
REMARK CNNaffinity 7.3693738
REMARK  9 active torsions:
REMARK  status: ('A' for Active; 'I' for Inactive)
REMARK    1  A    between atoms: C13_13  and  S1_14 
REMARK    2  A    between atoms: C22_26  and  C23_27 
REMARK    3  A    between atoms: C23_27  and  O4_28 
REMARK    4  A    between atoms: C29_34  and  O5_35 
REMARK    5  A    between atoms: C41_48  and  C42_49 
REMARK    6  A    between atoms: C41_48  and  N1_53 
REMARK    7  A    between atoms: C42_49  and  C43_50 
REMARK    8  A    between atoms: C43_50  and  C44_51 
REMARK    9  A    between atoms: C44_51  and  O7_52 
REMARK       I    between atoms: C45_55  and  N2_56 
REMARK       I    between atoms: C45_55  and  N3_57 
ROOT
HETATM    1  C1  UNL     1       2.967  13.865  18.865  1.00  0.00     0.010 C 
HETATM    2  C2  UNL     1       1.765  14.127  19.784  1.00  0.00    -0.010 C 
HETATM    3  C3  UNL     1       1.572  12.977  20.794  1.00  0.00     0.009 C 
HETATM    4  C4  UNL     1       0.700  11.802  20.320  1.00  0.00     0.039 C 
HETATM    5  C5  UNL     1       0.210  11.887  18.900  1.00  0.00    -0.049 C 
HETATM    6  C6  UNL     1      -0.157  10.716  18.210  1.00  0.00     0.044 C 
HETATM    7  C7  UNL     1      -0.580  10.773  16.879  1.00  0.00     0.072 C 
HETATM    8  C8  UNL     1      -0.488  11.977  16.194  1.00  0.00     0.037 C 
HETATM    9  C9  UNL     1      -0.185  13.150  16.887  1.00  0.00     0.011 C 
HETATM   10  C10 UNL     1       0.107  13.128  18.253  1.00  0.00    -0.047 C 
HETATM   11  C11 UNL     1       0.456  14.412  18.979  1.00  0.00     0.024 C 
HETATM   12  C12 UNL     1      -0.628  14.948  19.957  1.00  0.00     0.033 C 
HETATM   13  C13 UNL     1      -1.942  15.637  19.472  1.00  0.00     0.139 C 
HETATM   14  C14 UNL     1      -3.235  14.771  19.672  1.00  0.00     0.038 C 
HETATM   15  C15 UNL     1      -3.965  15.242  20.945  1.00  0.00    -0.014 C 
HETATM   16  C16 UNL     1      -5.166  15.860  20.902  1.00  0.00    -0.050 C 
HETATM   17  C17 UNL     1      -5.775  16.138  19.560  1.00  0.00     0.042 C 
HETATM   18  C18 UNL     1      -5.761  14.786  18.854  1.00  0.00     0.001 C 
HETATM   19  C19 UNL     1      -6.474  13.664  19.700  1.00  0.00     0.037 C 
HETATM   20  C20 UNL     1      -7.444  14.133  20.829  1.00  0.00     0.123 C 
HETATM   21  C21 UNL     1      -8.366  12.964  21.257  1.00  0.00     0.039 C 
HETATM   22  C22 UNL     1      -9.546  13.384  22.192  1.00  0.00     0.023 C 
HETATM   23  C24 UNL     1      -9.273  13.149  23.697  1.00  0.00     0.101 C 
HETATM   24  C25 UNL     1      -8.327  14.121  24.257  1.00  0.00    -0.101 C 
HETATM   25  C26 UNL     1      -7.468  14.913  24.533  1.00  0.00    -0.066 C 
HETATM   26  C27 UNL     1      -6.359  15.822  24.598  1.00  0.00     0.029 A 
HETATM   27  C28 UNL     1      -5.949  16.282  25.856  1.00  0.00     0.057 A 
HETATM   28  C29 UNL     1      -4.908  17.196  25.953  1.00  0.00     0.067 A 
HETATM   29  C30 UNL     1      -4.265  17.666  24.815  1.00  0.00     0.037 A 
HETATM   30  C31 UNL     1      -4.670  17.208  23.559  1.00  0.00     0.014 A 
HETATM   31  C32 UNL     1      -5.704  16.258  23.419  1.00  0.00    -0.006 A 
HETATM   32  C33 UNL     1      -6.177  15.848  22.019  1.00  0.00     0.185 C 
HETATM   33  O6  UNL     1      -6.698  14.507  21.998  1.00  0.00    -0.371 OA
HETATM   34  C34 UNL     1      -4.256  14.519  18.480  1.00  0.00     0.030 C 
HETATM   35  C35 UNL     1      -4.081  13.178  17.773  1.00  0.00    -0.050 C 
HETATM   36  C36 UNL     1      -3.903  11.975  18.462  1.00  0.00     0.133 A 
HETATM   37  C37 UNL     1      -3.534  10.811  17.785  1.00  0.00     0.138 A 
HETATM   38  C38 UNL     1      -3.307  10.825  16.396  1.00  0.00    -0.000 C 
HETATM   39  C39 UNL     1      -3.674  11.981  15.690  1.00  0.00     0.010 C 
HETATM   40  C40 UNL     1      -4.036  13.146  16.374  1.00  0.00     0.006 C 
HETATM   41  C41 UNL     1      -2.469   9.670  15.771  1.00  0.00     0.169 C 
HETATM   42  O8  UNL     1      -1.099   9.623  16.331  1.00  0.00    -0.316 OA
HETATM   43 NA1  UNL     1      -3.543  12.955  19.353  1.00  0.00    -0.401 Na
ATOM     44  HA1 UNL     1      -3.409  13.740  19.992  1.00  0.00     0.154 HD
ENDROOT
BRANCH  41  45
HETATM   45  C42 UNL     1      -2.306   9.791  14.218  1.00  0.00     0.069 C 
BRANCH  45  46
HETATM   46  C43 UNL     1      -0.896   9.560  13.645  1.00  0.00     0.031 C 
BRANCH  46  47
HETATM   47  C44 UNL     1      -0.788   8.648  12.430  1.00  0.00     0.164 C 
BRANCH  47  48
HETATM   48  O7  UNL     1      -1.440   9.214  11.301  1.00  0.00    -0.401 OA
HETATM   49  H48 UNL     1      -2.397   9.127  11.496  1.00  0.00     0.209 HD
ENDBRANCH  47  48
ENDBRANCH  46  47
ENDBRANCH  45  46
ENDBRANCH  41  45
BRANCH  41  50
HETATM   50  N1  UNL     1      -3.290   8.436  15.950  1.00  0.00    -0.336 N 
HETATM   51  C45 UNL     1      -2.767   7.273  16.041  1.00  0.00     0.124 C 
HETATM   52  N2  UNL     1      -1.484   6.883  15.887  1.00  0.00    -0.279 NA
HETATM   53  N3  UNL     1      -3.576   6.214  16.263  1.00  0.00    -0.279 NA
HETATM   54  H49 UNL     1      -0.854   7.668  15.738  1.00  0.00     0.126 HD
HETATM   55  H50 UNL     1      -1.126   6.243  16.580  1.00  0.00     0.126 HD
HETATM   56  H51 UNL     1      -3.191   5.457  16.805  1.00  0.00     0.126 HD
HETATM   57  H52 UNL     1      -4.498   6.496  16.575  1.00  0.00     0.126 HD
ATOM     58  H1  UNL     1      -4.304   8.523  16.001  1.00  0.00     0.165 HD
ENDBRANCH  41  50
BRANCH  13  59
HETATM   59  S1  UNL     1      -1.796  16.696  18.050  1.00  0.00     0.106 S 
HETATM   60  O1  UNL     1      -0.496  17.340  18.226  1.00  0.00    -0.595 OA
HETATM   61  O2  UNL     1      -2.933  17.605  18.121  1.00  0.00    -0.595 OA
HETATM   62  O3  UNL     1      -1.837  15.759  16.928  1.00  0.00    -0.595 OA
ENDBRANCH  13  59
BRANCH  22  63
HETATM   63  C23 UNL     1     -10.812  12.594  21.811  1.00  0.00     0.169 C 
BRANCH  63  64
HETATM   64  O4  UNL     1     -10.544  11.196  21.834  1.00  0.00    -0.400 OA
HETATM   65  H29 UNL     1     -11.383  10.742  21.655  1.00  0.00     0.209 HD
ENDBRANCH  63  64
ENDBRANCH  22  63
BRANCH  28  66
HETATM   66  O5  UNL     1      -4.551  17.629  27.197  1.00  0.00    -0.361 OA
HETATM   67  H33 UNL     1      -3.835  18.277  27.098  1.00  0.00     0.217 HD
ENDBRANCH  28  66
TORSDOF 9
ENDMDL
