MODEL 1
REMARK minimizedAffinity -10.8689709
REMARK CNNscore 0.624238729
REMARK CNNaffinity 7.65507507
REMARK  11 active torsions:
REMARK  status: ('A' for Active; 'I' for Inactive)
REMARK    1  A    between atoms: C3_4  and  O2_5 
REMARK    2  A    between atoms: O2_5  and  C4_6 
REMARK    3  A    between atoms: C7_9  and  C8_10 
REMARK    4  A    between atoms: N1_11  and  C9_13 
REMARK    5  A    between atoms: C9_13  and  C10_14 
REMARK    6  A    between atoms: C10_14  and  C11_15 
REMARK    7  A    between atoms: C22_26  and  C23_27 
REMARK    8  A    between atoms: C29_35  and  O5_36 
REMARK    9  A    between atoms: C33_40  and  O6_41 
REMARK   10  A    between atoms: C36_44  and  O7_45 
REMARK   11  A    between atoms: C37_46  and  O8_47 
ROOT
HETATM    1  C4  UNL     1      -3.278   6.775  13.462  1.00  0.00     0.127 C 
HETATM    2  C5  UNL     1      -3.163   6.396  14.930  1.00  0.00     0.033 C 
HETATM    3  C6  UNL     1      -2.081   7.164  15.694  1.00  0.00     0.021 C 
HETATM    4  C7  UNL     1      -1.642   8.529  15.069  1.00  0.00     0.026 C 
HETATM    5  C17 UNL     1      -1.041   9.429  16.231  1.00  0.00     0.009 C 
HETATM    6  C18 UNL     1       0.472   9.763  16.124  1.00  0.00     0.007 C 
HETATM    7  C19 UNL     1       1.003  10.597  17.311  1.00  0.00     0.013 C 
HETATM    8  C20 UNL     1       0.140  11.847  17.557  1.00  0.00    -0.005 C 
HETATM    9  C21 UNL     1       0.331  12.803  16.332  1.00  0.00     0.019 C 
HETATM   10  C22 UNL     1       0.440  12.712  18.824  1.00  0.00     0.028 C 
HETATM   11  C27 UNL     1      -0.947  13.316  19.202  1.00  0.00     0.013 C 
HETATM   12  C28 UNL     1      -1.994  12.708  18.244  1.00  0.00     0.040 C 
HETATM   13  C29 UNL     1      -1.337  11.414  17.777  1.00  0.00     0.070 C 
HETATM   14  C30 UNL     1      -1.900  10.700  16.531  1.00  0.00     0.026 C 
HETATM   15  C31 UNL     1      -3.373  10.296  16.660  1.00  0.00     0.011 C 
HETATM   16  C32 UNL     1      -3.937   9.638  15.391  1.00  0.00     0.039 C 
HETATM   17  C33 UNL     1      -2.869   9.186  14.366  1.00  0.00     0.073 C 
HETATM   18  C34 UNL     1      -3.509   8.280  13.283  1.00  0.00     0.071 C 
ENDROOT
BRANCH   1  19
HETATM   19  O2  UNL     1      -4.360   6.014  12.911  1.00  0.00    -0.356 OA
BRANCH  19  20
HETATM   20  C3  UNL     1      -4.087   4.619  12.776  1.00  0.00     0.263 C 
HETATM   21  O1  UNL     1      -2.793   4.422  12.208  1.00  0.00    -0.354 OA
HETATM   22  C2  UNL     1      -2.566   3.169  11.554  1.00  0.00     0.151 C 
HETATM   23  C1  UNL     1      -2.483   3.406  10.047  1.00  0.00     0.042 C 
HETATM   24  C37 UNL     1      -3.563   2.076  11.970  1.00  0.00     0.175 C 
HETATM   25  C36 UNL     1      -5.015   2.525  11.746  1.00  0.00     0.154 C 
HETATM   26  C35 UNL     1      -5.190   4.030  11.904  1.00  0.00     0.095 C 
BRANCH  24  27
HETATM   27  O8  UNL     1      -3.348   0.832  11.298  1.00  0.00    -0.390 OA
HETATM   28  H55 UNL     1      -2.405   0.600  11.393  1.00  0.00     0.210 HD
ENDBRANCH  24  27
BRANCH  25  29
HETATM   29  O7  UNL     1      -5.465   2.132  10.445  1.00  0.00    -0.393 OA
HETATM   30  H53 UNL     1      -5.014   1.280  10.271  1.00  0.00     0.210 HD
ENDBRANCH  25  29
ENDBRANCH  19  20
ENDBRANCH   1  19
BRANCH  17  31
HETATM   31  O6  UNL     1      -2.442  10.384  13.682  1.00  0.00    -0.389 OA
HETATM   32  H47 UNL     1      -3.210  10.745  13.203  1.00  0.00     0.210 HD
ENDBRANCH  17  31
BRANCH   4  33
HETATM   33  C8  UNL     1      -0.572   8.326  13.982  1.00  0.00     0.068 C 
HETATM   34  N1  UNL     1      -0.464   9.112  12.965  1.00  0.00    -0.401 N 
ATOM     35  H1  UNL     1      -1.077   9.913  12.824  1.00  0.00     0.158 HD
BRANCH  34  36
HETATM   36  C9  UNL     1       0.611   8.763  12.026  1.00  0.00     0.123 C 
BRANCH  36  37
HETATM   37  C10 UNL     1      -0.000   8.517  10.643  1.00  0.00     0.053 C 
BRANCH  37  38
HETATM   38  C11 UNL     1       0.971   7.869   9.681  1.00  0.00    -0.082 C 
HETATM   39  C12 UNL     1       1.040   8.244   8.390  1.00  0.00    -0.024 C 
HETATM   40  C13 UNL     1       1.944   7.602   7.379  1.00  0.00     0.027 C 
HETATM   41  C14 UNL     1       2.541   6.278   7.858  1.00  0.00     0.004 C 
HETATM   42  C15 UNL     1       2.995   6.373   9.310  1.00  0.00     0.005 C 
HETATM   43  C16 UNL     1       1.834   6.756  10.232  1.00  0.00     0.034 C 
ENDBRANCH  37  38
ENDBRANCH  36  37
ENDBRANCH  34  36
ENDBRANCH   4  33
BRANCH  13  44
HETATM   44  O5  UNL     1      -1.416  10.504  18.887  1.00  0.00    -0.389 OA
HETATM   45  H41 UNL     1      -2.353  10.367  19.105  1.00  0.00     0.210 HD
ENDBRANCH  13  44
BRANCH  10  46
HETATM   46  C23 UNL     1       1.166  12.093  19.989  1.00  0.00    -0.045 A 
HETATM   47  C24 UNL     1       1.204  10.786  20.253  1.00  0.00     0.087 A 
HETATM   48  C25 UNL     1       2.062  10.600  21.420  1.00  0.00     0.283 A 
HETATM   49  O3  UNL     1       2.315   9.524  21.930  1.00  0.00    -0.260 OA
HETATM   50  O4  UNL     1       2.535  11.807  21.820  1.00  0.00    -0.314 OA
HETATM   51  C26 UNL     1       1.981  12.830  20.984  1.00  0.00     0.213 A 
ENDBRANCH  10  46
TORSDOF 11
ENDMDL
