MODEL 1
REMARK minimizedAffinity -9.67122746
REMARK CNNscore 0.757831454
REMARK CNNaffinity 7.34618187
REMARK  12 active torsions:
REMARK  status: ('A' for Active; 'I' for Inactive)
REMARK    1  A    between atoms: O1_2  and  C2_3 
REMARK    2  A    between atoms: C2_3  and  C3_4 
REMARK    3  A    between atoms: C3_4  and  C4_5 
REMARK    4  A    between atoms: C4_5  and  O2_6 
REMARK    5  A    between atoms: O2_6  and  C5_7 
REMARK    6  A    between atoms: C20_23  and  C21_24 
REMARK    7  A    between atoms: C21_24  and  O4_26 
REMARK    8  A    between atoms: C21_24  and  C23_27 
REMARK    9  A    between atoms: C23_27  and  O5_28 
REMARK   10  A    between atoms: C23_27  and  C24_29 
REMARK   11  A    between atoms: C30_36  and  O7_37 
REMARK   12  A    between atoms: C35_42  and  O8_43 
ROOT
HETATM    1  C5  UNL     1      -1.916  52.049 -26.024  1.00  0.00     0.122 C 
HETATM    2  C6  UNL     1      -3.387  51.762 -25.726  1.00  0.00     0.033 C 
HETATM    3  C7  UNL     1      -3.634  51.370 -24.267  1.00  0.00     0.013 C 
HETATM    4  C8  UNL     1      -2.716  50.210 -23.760  1.00  0.00    -0.026 C 
HETATM    5  C9  UNL     1      -3.103  48.921 -24.529  1.00  0.00     0.016 C 
HETATM    6  C10 UNL     1      -1.238  50.582 -24.048  1.00  0.00     0.071 C 
HETATM    7  C11 UNL     1      -1.004  50.922 -25.529  1.00  0.00     0.045 C 
HETATM    8  C12 UNL     1      -0.769  51.748 -23.177  1.00  0.00     0.154 C 
HETATM    9  O3  UNL     1       0.074  52.564 -23.544  1.00  0.00    -0.293 OA
HETATM   10  C13 UNL     1      -1.281  51.857 -21.795  1.00  0.00     0.057 C 
HETATM   11  C14 UNL     1      -2.233  51.031 -21.337  1.00  0.00    -0.037 C 
HETATM   12  C15 UNL     1      -2.954  50.003 -22.215  1.00  0.00     0.026 C 
HETATM   13  C16 UNL     1      -2.648  48.583 -21.666  1.00  0.00     0.011 C 
HETATM   14  C17 UNL     1      -2.925  48.438 -20.150  1.00  0.00     0.014 C 
HETATM   15  C18 UNL     1      -2.216  49.523 -19.319  1.00  0.00    -0.002 C 
HETATM   16  C19 UNL     1      -0.681  49.305 -19.425  1.00  0.00     0.019 C 
HETATM   17  C20 UNL     1      -2.716  49.681 -17.846  1.00  0.00     0.034 C 
HETATM   18  C33 UNL     1      -2.316  51.138 -17.475  1.00  0.00     0.012 C 
HETATM   19  C34 UNL     1      -2.056  51.879 -18.807  1.00  0.00     0.044 C 
HETATM   20  C35 UNL     1      -2.617  50.936 -19.880  1.00  0.00     0.089 C 
ENDROOT
BRANCH  17  21
HETATM   21  C21 UNL     1      -2.598  48.584 -16.724  1.00  0.00     0.087 C 
HETATM   22  C22 UNL     1      -3.446  47.356 -17.168  1.00  0.00     0.049 C 
BRANCH  21  23
HETATM   23  O4  UNL     1      -3.282  49.101 -15.569  1.00  0.00    -0.387 OA
HETATM   24  H34 UNL     1      -4.199  49.298 -15.828  1.00  0.00     0.210 HD
ENDBRANCH  21  23
BRANCH  21  25
HETATM   25  C23 UNL     1      -1.186  48.049 -16.289  1.00  0.00     0.181 C 
BRANCH  25  26
HETATM   26  O5  UNL     1      -1.319  46.912 -15.401  1.00  0.00    -0.390 OA
HETATM   27  H36 UNL     1      -0.439  46.514 -15.293  1.00  0.00     0.210 HD
ENDBRANCH  25  26
BRANCH  25  28
HETATM   28  C24 UNL     1      -0.118  48.986 -15.673  1.00  0.00     0.158 C 
HETATM   29  O6  UNL     1       0.393  49.999 -16.546  1.00  0.00    -0.374 OA
HETATM   30  C25 UNL     1       0.550  51.215 -15.785  1.00  0.00     0.159 C 
HETATM   31  C26 UNL     1       0.690  50.776 -14.327  1.00  0.00     0.027 C 
HETATM   32  C30 UNL     1       1.694  52.099 -16.319  1.00  0.00     0.170 C 
HETATM   33  C27 UNL     1       2.111  50.296 -13.961  1.00  0.00     0.034 C 
HETATM   34  C31 UNL     1      -0.317  49.618 -14.274  1.00  0.00     0.020 C 
HETATM   35  C28 UNL     1       3.218  51.038 -14.641  1.00  0.00    -0.028 C 
HETATM   36  C29 UNL     1       3.030  51.839 -15.697  1.00  0.00     0.003 C 
HETATM   37  C32 UNL     1      -1.712  50.135 -13.933  1.00  0.00     0.013 C 
BRANCH  32  38
HETATM   38  O7  UNL     1       1.398  53.475 -16.067  1.00  0.00    -0.389 OA
HETATM   39  H45 UNL     1       1.552  53.631 -15.119  1.00  0.00     0.210 HD
ENDBRANCH  32  38
ENDBRANCH  25  28
ENDBRANCH  21  25
ENDBRANCH  17  21
BRANCH  20  40
HETATM   40  O8  UNL     1      -4.044  51.111 -19.853  1.00  0.00    -0.384 OA
HETATM   41  H54 UNL     1      -4.224  52.026 -20.133  1.00  0.00     0.211 HD
ENDBRANCH  20  40
BRANCH   1  42
HETATM   42  O2  UNL     1      -1.754  52.141 -27.444  1.00  0.00    -0.386 OA
BRANCH  42  43
HETATM   43  C4  UNL     1      -1.380  53.441 -27.903  1.00  0.00     0.170 C 
BRANCH  43  44
HETATM   44  C3  UNL     1       0.079  53.451 -28.350  1.00  0.00     0.052 C 
BRANCH  44  45
HETATM   45  C2  UNL     1       0.786  52.157 -27.964  1.00  0.00     0.169 C 
BRANCH  45  46
HETATM   46  O1  UNL     1       1.987  52.403 -27.231  1.00  0.00    -0.396 OA
HETATM   47  C1  UNL     1       2.419  51.288 -26.462  1.00  0.00     0.201 C 
ENDBRANCH  45  46
ENDBRANCH  44  45
ENDBRANCH  43  44
ENDBRANCH  42  43
ENDBRANCH   1  42
TORSDOF 12
ENDMDL
