MODEL 1
REMARK minimizedAffinity -8.15032959
REMARK  9 active torsions:
REMARK  status: ('A' for Active; 'I' for Inactive)
REMARK    1  A    between atoms: O1_2  and  C2_3 
REMARK    2  A    between atoms: C2_3  and  C3_4 
REMARK    3  A    between atoms: C3_4  and  N1_5 
REMARK       I    between atoms: N1_5  and  C4_6 
REMARK    4  A    between atoms: C4_6  and  C5_8 
REMARK    5  A    between atoms: C5_8  and  C7_10 
REMARK    6  A    between atoms: C15_20  and  N3_21 
REMARK       I    between atoms: N3_21  and  C16_22 
REMARK    7  A    between atoms: C16_22  and  C17_24 
REMARK    8  A    between atoms: C17_24  and  N4_25 
REMARK    9  A    between atoms: C23_32  and  O4_33 
ROOT
HETATM    1  C7  UNL     1      -2.401  50.073 -25.067  1.00  0.00     0.027 C 
HETATM    2  C8  UNL     1      -3.256  48.968 -24.430  1.00  0.00     0.009 C 
HETATM    3  C9  UNL     1      -2.615  48.405 -23.167  1.00  0.00     0.010 C 
HETATM    4  C10 UNL     1      -2.322  49.484 -22.101  1.00  0.00    -0.033 C 
HETATM    5  C11 UNL     1      -3.663  50.064 -21.580  1.00  0.00     0.016 C 
HETATM    6  C12 UNL     1      -1.581  48.785 -20.918  1.00  0.00     0.058 C 
HETATM    7  C13 UNL     1      -1.020  49.804 -19.995  1.00  0.00     0.010 A 
HETATM    8  C14 UNL     1      -0.751  51.114 -20.321  1.00  0.00     0.029 A 
HETATM    9  N2  UNL     1      -0.282  51.882 -19.270  1.00  0.00    -0.339 N 
ATOM     10  H2  UNL     1      -0.064  52.877 -19.320  1.00  0.00     0.168 HD
HETATM   11  C15 UNL     1      -0.158  51.133 -18.196  1.00  0.00     0.151 A 
HETATM   12  S1  UNL     1      -0.631  49.504 -18.368  1.00  0.00    -0.056 SA
HETATM   13  C20 UNL     1      -0.993  51.714 -21.688  1.00  0.00     0.040 C 
HETATM   14  C21 UNL     1       0.247  52.518 -22.114  1.00  0.00     0.017 C 
HETATM   15  C22 UNL     1      -1.398  50.594 -22.731  1.00  0.00     0.033 C 
HETATM   16  C23 UNL     1      -2.024  51.171 -24.033  1.00  0.00     0.128 C 
ENDROOT
BRANCH   1  17
HETATM   17  C5  UNL     1      -3.036  50.680 -26.358  1.00  0.00     0.080 C 
HETATM   18  C6  UNL     1      -3.469  49.658 -27.412  1.00  0.00     0.020 C 
BRANCH  17  19
HETATM   19  C4  UNL     1      -2.168  51.793 -26.951  1.00  0.00     0.222 C 
HETATM   20  N1  UNL     1      -0.986  51.400 -27.534  1.00  0.00    -0.359 N 
HETATM   21  H8  UNL     1      -0.866  50.427 -27.769  1.00  0.00     0.162 HD
HETATM   22  O2  UNL     1      -2.509  52.971 -26.869  1.00  0.00    -0.273 OA
BRANCH  20  23
HETATM   23  C3  UNL     1      -0.127  52.355 -28.216  1.00  0.00     0.148 C 
BRANCH  23  24
HETATM   24  C2  UNL     1       1.353  51.980 -28.105  1.00  0.00     0.186 C 
BRANCH  24  25
HETATM   25  O1  UNL     1       1.894  52.265 -26.816  1.00  0.00    -0.394 OA
HETATM   26  C1  UNL     1       2.522  51.141 -26.210  1.00  0.00     0.201 C 
ENDBRANCH  24  25
ENDBRANCH  23  24
ENDBRANCH  20  23
ENDBRANCH  17  19
ENDBRANCH   1  17
BRANCH  16  27
HETATM   27  O4  UNL     1      -1.072  52.033 -24.649  1.00  0.00    -0.395 OA
HETATM   28  H38 UNL     1      -1.547  52.726 -25.137  1.00  0.00     0.210 HD
ENDBRANCH  16  27
BRANCH  11  29
HETATM   29  N3  UNL     1       0.307  51.651 -17.022  1.00  0.00    -0.306 N 
HETATM   30  C16 UNL     1       0.815  50.977 -15.935  1.00  0.00     0.252 C 
HETATM   31  O3  UNL     1       0.905  49.763 -15.784  1.00  0.00    -0.271 OA
HETATM   32  H23 UNL     1       0.388  52.664 -17.000  1.00  0.00     0.171 HD
BRANCH  30  33
HETATM   33  C17 UNL     1       1.230  51.937 -14.810  1.00  0.00     0.373 C 
BRANCH  33  34
HETATM   34  N4  UNL     1       2.710  52.049 -14.707  1.00  0.00     0.088 N 
HETATM   35  C18 UNL     1       3.301  52.283 -16.032  1.00  0.00     0.310 C 
HETATM   36  C19 UNL     1       3.259  50.811 -14.144  1.00  0.00     0.310 C 
ENDBRANCH  33  34
ENDBRANCH  30  33
ENDBRANCH  11  29
TORSDOF 9
ENDMDL
