MODEL 1
REMARK minimizedAffinity -7.08682823
REMARK CNNscore 0.813881934
REMARK CNNaffinity 7.22789192
REMARK  7 active torsions:
REMARK  status: ('A' for Active; 'I' for Inactive)
REMARK    1  A    between atoms: C2_2  and  C3_3 
REMARK    2  A    between atoms: C4_5  and  C5_6 
REMARK    3  A    between atoms: C5_6  and  C6_7 
REMARK    4  A    between atoms: C6_7  and  C7_8 
REMARK    5  A    between atoms: C7_8  and  C9_10 
REMARK    6  A    between atoms: C11_12  and  O2_13 
REMARK    7  A    between atoms: C30_33  and  O4_34 
ROOT
HETATM    1  C9  UNL     1      -0.498  11.277  17.874  1.00  0.00     0.001 C 
HETATM    2  C10 UNL     1      -1.878  11.759  17.341  1.00  0.00     0.038 C 
HETATM    3  C11 UNL     1      -2.139  11.032  16.006  1.00  0.00     0.132 C 
HETATM    4  C12 UNL     1      -1.113   9.869  15.975  1.00  0.00     0.016 C 
HETATM    5  C13 UNL     1      -1.669   8.686  16.831  1.00  0.00     0.023 C 
HETATM    6  C14 UNL     1      -0.710   9.256  14.622  1.00  0.00    -0.037 C 
HETATM    7  C15 UNL     1       0.539   8.740  14.459  1.00  0.00    -0.065 C 
HETATM    8  C16 UNL     1       1.569   8.764  15.600  1.00  0.00     0.036 C 
HETATM    9  C17 UNL     1       1.207   9.542  16.880  1.00  0.00     0.015 C 
HETATM   10  C18 UNL     1       0.136  10.605  16.615  1.00  0.00    -0.026 C 
HETATM   11  C19 UNL     1       0.748  11.711  15.695  1.00  0.00     0.016 C 
HETATM   12  C20 UNL     1       1.026   8.140  13.107  1.00  0.00    -0.015 C 
HETATM   13  C21 UNL     1       2.005   9.171  12.488  1.00  0.00     0.020 C 
HETATM   14  C22 UNL     1       1.777   6.800  13.347  1.00  0.00     0.021 C 
HETATM   15  C23 UNL     1       1.855   5.856  12.148  1.00  0.00     0.080 C 
HETATM   16  C24 UNL     1       1.539   6.528  10.831  1.00  0.00     0.135 C 
HETATM   17  O3  UNL     1       2.294   6.392   9.868  1.00  0.00    -0.297 OA
HETATM   18  C25 UNL     1       0.214   7.297  10.737  1.00  0.00     0.018 C 
HETATM   19  C26 UNL     1      -0.844   6.289  10.241  1.00  0.00     0.023 C 
HETATM   20  C27 UNL     1       0.337   8.401   9.667  1.00  0.00     0.023 C 
HETATM   21  C28 UNL     1      -0.184   7.826  12.158  1.00  0.00     0.016 C 
HETATM   22  C29 UNL     1      -1.171   9.002  12.127  1.00  0.00     0.043 C 
HETATM   23  C30 UNL     1      -1.748   9.258  13.519  1.00  0.00     0.148 C 
ENDROOT
BRANCH   1  24
HETATM   24  C7  UNL     1       0.272  12.405  18.618  1.00  0.00    -0.013 C 
HETATM   25  C8  UNL     1       1.521  12.876  17.867  1.00  0.00     0.010 C 
BRANCH  24  26
HETATM   26  C6  UNL     1       0.616  12.045  20.092  1.00  0.00     0.008 C 
BRANCH  26  27
HETATM   27  C5  UNL     1       2.015  11.497  20.404  1.00  0.00     0.028 C 
BRANCH  27  28
HETATM   28  C4  UNL     1       2.042  10.156  21.076  1.00  0.00    -0.017 C 
HETATM   29  C2  UNL     1       2.638   9.855  22.244  1.00  0.00    -0.028 C 
HETATM   30  C1  UNL     1       3.447  10.778  23.098  1.00  0.00     0.051 C 
BRANCH  29  31
HETATM   31  C3  UNL     1       2.515   8.454  22.754  1.00  0.00     0.265 C 
HETATM   32  O1  UNL     1       1.629   7.680  22.415  1.00  0.00    -0.302 OA
ENDBRANCH  29  31
ENDBRANCH  27  28
ENDBRANCH  26  27
ENDBRANCH  24  26
ENDBRANCH   1  24
BRANCH   3  33
HETATM   33  O2  UNL     1      -3.489  10.601  15.944  1.00  0.00    -0.394 OA
HETATM   34  H18 UNL     1      -4.055  11.390  15.948  1.00  0.00     0.210 HD
ENDBRANCH   3  33
BRANCH  23  35
HETATM   35  O4  UNL     1      -2.717   8.242  13.767  1.00  0.00    -0.391 OA
HETATM   36  H46 UNL     1      -2.328   7.604  14.386  1.00  0.00     0.210 HD
ENDBRANCH  23  35
TORSDOF 7
ENDMDL
