MODEL 1
REMARK minimizedAffinity -9.36885643
REMARK CNNscore 0.65218544
REMARK CNNaffinity 7.0280571
REMARK  8 active torsions:
REMARK  status: ('A' for Active; 'I' for Inactive)
REMARK    1  A    between atoms: C4_4  and  C5_5 
REMARK    2  A    between atoms: C5_5  and  C6_6 
REMARK    3  A    between atoms: C6_6  and  C7_7 
REMARK    4  A    between atoms: C7_7  and  C9_9 
REMARK    5  A    between atoms: C18_18  and  C20_20 
REMARK    6  A    between atoms: C20_20  and  O2_22 
REMARK    7  A    between atoms: C21_23  and  O3_24 
REMARK    8  A    between atoms: C23_26  and  O4_27 
ROOT
HETATM    1  C9  UNL     1      -5.793   6.138  14.591  1.00  0.00    -0.002 C 
HETATM    2  C10 UNL     1      -6.051   5.081  13.480  1.00  0.00     0.006 C 
HETATM    3  C11 UNL     1      -4.770   4.992  12.638  1.00  0.00     0.011 C 
HETATM    4  C12 UNL     1      -3.679   5.654  13.500  1.00  0.00    -0.032 C 
HETATM    5  C13 UNL     1      -3.198   4.567  14.514  1.00  0.00     0.016 C 
HETATM    6  C14 UNL     1      -2.481   6.215  12.693  1.00  0.00     0.004 C 
HETATM    7  C15 UNL     1      -1.606   5.131  12.042  1.00  0.00     0.007 C 
HETATM    8  C16 UNL     1      -0.521   5.782  11.193  1.00  0.00     0.007 C 
HETATM    9  C17 UNL     1       0.506   6.481  12.097  1.00  0.00     0.018 C 
HETATM   10  C18 UNL     1       1.668   7.200  11.320  1.00  0.00     0.072 C 
HETATM   11  C19 UNL     1       1.156   8.072  10.152  1.00  0.00     0.030 C 
HETATM   12  C21 UNL     1       2.565   8.040  12.287  1.00  0.00     0.139 C 
HETATM   13  C22 UNL     1       2.356   7.662  13.747  1.00  0.00     0.065 C 
HETATM   14  C23 UNL     1       0.902   7.854  14.204  1.00  0.00     0.130 C 
HETATM   15  C24 UNL     1      -0.125   7.400  13.156  1.00  0.00    -0.001 A 
HETATM   16  C25 UNL     1      -1.145   8.433  12.727  1.00  0.00     0.024 A 
HETATM   17  C26 UNL     1      -1.643   7.235  13.509  1.00  0.00    -0.025 A 
HETATM   18  C27 UNL     1      -2.102   7.513  14.950  1.00  0.00     0.011 C 
HETATM   19  C28 UNL     1      -3.615   7.467  15.252  1.00  0.00     0.011 C 
HETATM   20  C29 UNL     1      -4.477   6.852  14.137  1.00  0.00    -0.032 C 
HETATM   21  C30 UNL     1      -4.803   7.995  13.138  1.00  0.00     0.016 C 
ENDROOT
BRANCH   1  22
HETATM   22  C7  UNL     1      -7.082   6.911  15.009  1.00  0.00    -0.014 C 
HETATM   23  C8  UNL     1      -7.432   6.868  16.503  1.00  0.00     0.010 C 
BRANCH  22  24
HETATM   24  C6  UNL     1      -8.288   6.522  14.118  1.00  0.00     0.008 C 
BRANCH  24  25
HETATM   25  C5  UNL     1      -9.671   6.783  14.736  1.00  0.00     0.028 C 
BRANCH  25  26
HETATM   26  C4  UNL     1     -10.606   7.573  13.864  1.00  0.00    -0.025 C 
HETATM   27  C2  UNL     1     -11.937   7.417  13.709  1.00  0.00    -0.091 C 
HETATM   28  C1  UNL     1     -12.707   8.313  12.779  1.00  0.00     0.042 C 
HETATM   29  C3  UNL     1     -12.781   6.366  14.387  1.00  0.00     0.042 C 
ENDBRANCH  25  26
ENDBRANCH  24  25
ENDBRANCH  22  24
ENDBRANCH   1  22
BRANCH  14  30
HETATM   30  O4  UNL     1       0.744   7.083  15.397  1.00  0.00    -0.395 OA
HETATM   31  H39 UNL     1       1.266   7.525  16.089  1.00  0.00     0.210 HD
ENDBRANCH  14  30
BRANCH  10  32
HETATM   32  C20 UNL     1       2.565   6.120  10.708  1.00  0.00     0.151 C 
HETATM   33  O1  UNL     1       2.315   5.432   9.732  1.00  0.00    -0.649 OA
BRANCH  32  34
HETATM   34  O2  UNL     1       3.745   5.967  11.337  1.00  0.00    -0.776 OA
HETATM   35  H33 UNL     1       4.181   5.230  10.858  1.00  0.00     0.167 HD
ENDBRANCH  32  34
ENDBRANCH  10  32
BRANCH  12  36
HETATM   36  O3  UNL     1       2.339   9.452  12.174  1.00  0.00    -0.394 OA
HETATM   37  H35 UNL     1       2.795   9.762  11.368  1.00  0.00     0.210 HD
ENDBRANCH  12  36
TORSDOF 8
ENDMDL
