MODEL 1
REMARK minimizedAffinity -9.71826744
REMARK  4 active torsions:
REMARK  status: ('A' for Active; 'I' for Inactive)
REMARK    1  A    between atoms: C4_4  and  C5_5 
REMARK    2  A    between atoms: C5_5  and  C6_6 
REMARK    3  A    between atoms: C6_6  and  C7_7 
REMARK    4  A    between atoms: C7_7  and  C9_9 
ROOT
HETATM    1  C9  UNL     1      -0.725  52.513 -21.613  1.00  0.00    -0.001 C 
HETATM    2  C10 UNL     1      -0.007  52.274 -22.973  1.00  0.00     0.007 C 
HETATM    3  C11 UNL     1      -0.832  51.248 -23.769  1.00  0.00     0.024 C 
HETATM    4  C12 UNL     1      -2.065  51.020 -22.925  1.00  0.00     0.092 C 
HETATM    5  C13 UNL     1      -3.194  52.022 -23.280  1.00  0.00     0.272 C 
HETATM    6  O1  UNL     1      -3.083  53.133 -23.765  1.00  0.00    -0.264 OA
HETATM    7  O2  UNL     1      -4.407  51.439 -22.957  1.00  0.00    -0.305 OA
HETATM    8  C14 UNL     1      -4.165  50.118 -22.414  1.00  0.00     0.113 C 
HETATM    9  C15 UNL     1      -3.933  50.305 -20.882  1.00  0.00     0.043 C 
HETATM   10  C16 UNL     1      -2.846  51.362 -20.543  1.00  0.00     0.014 C 
HETATM   11  C17 UNL     1      -1.595  51.225 -21.448  1.00  0.00    -0.020 C 
HETATM   12  C18 UNL     1      -0.734  50.048 -20.923  1.00  0.00     0.017 C 
HETATM   13  C19 UNL     1      -2.864  49.784 -23.066  1.00  0.00     0.137 A 
HETATM   14  O3  UNL     1      -2.293  48.494 -22.973  1.00  0.00    -0.364 OA
HETATM   15  C20 UNL     1      -2.788  48.888 -24.273  1.00  0.00     0.162 A 
HETATM   16  C21 UNL     1      -3.994  48.141 -24.735  1.00  0.00     0.041 C 
HETATM   17  C22 UNL     1      -5.308  48.851 -24.343  1.00  0.00     0.010 C 
HETATM   18  C23 UNL     1      -6.547  48.062 -24.851  1.00  0.00     0.056 C 
HETATM   19  C24 UNL     1      -6.557  47.884 -26.373  1.00  0.00     0.018 C 
HETATM   20  C25 UNL     1      -7.829  48.759 -24.402  1.00  0.00     0.131 C 
HETATM   21  O4  UNL     1      -8.772  48.979 -25.161  1.00  0.00    -0.298 OA
HETATM   22  C26 UNL     1      -7.935  49.080 -22.933  1.00  0.00     0.079 C 
HETATM   23  C27 UNL     1      -6.712  49.866 -22.487  1.00  0.00     0.020 C 
HETATM   24  C28 UNL     1      -5.356  49.158 -22.794  1.00  0.00    -0.004 C 
HETATM   25  C29 UNL     1      -5.287  47.851 -21.961  1.00  0.00     0.019 C 
ENDROOT
BRANCH   1  26
HETATM   26  C7  UNL     1       0.267  52.916 -20.486  1.00  0.00    -0.014 C 
HETATM   27  C8  UNL     1       1.638  53.340 -21.020  1.00  0.00     0.010 C 
BRANCH  26  28
HETATM   28  C6  UNL     1       0.430  51.843 -19.371  1.00  0.00     0.008 C 
BRANCH  28  29
HETATM   29  C5  UNL     1       0.552  52.325 -17.915  1.00  0.00     0.028 C 
BRANCH  29  30
HETATM   30  C4  UNL     1       1.959  52.605 -17.473  1.00  0.00    -0.025 C 
HETATM   31  C2  UNL     1       2.552  52.269 -16.311  1.00  0.00    -0.091 C 
HETATM   32  C1  UNL     1       1.908  51.516 -15.181  1.00  0.00     0.042 C 
HETATM   33  C3  UNL     1       3.983  52.663 -16.045  1.00  0.00     0.042 C 
ENDBRANCH  29  30
ENDBRANCH  28  29
ENDBRANCH  26  28
ENDBRANCH   1  26
TORSDOF 4
ENDMDL
