MODEL 1
REMARK minimizedAffinity -8.06023502
REMARK CNNscore 0.69648248
REMARK CNNaffinity 7.05353403
REMARK  11 active torsions:
REMARK  status: ('A' for Active; 'I' for Inactive)
REMARK    1  A    between atoms: C12_13  and  O2_14 
REMARK    2  A    between atoms: C19_21  and  O3_22 
REMARK    3  A    between atoms: C19_21  and  C20_23 
REMARK    4  A    between atoms: C20_23  and  C21_25 
REMARK    5  A    between atoms: C21_25  and  O5_26 
REMARK    6  A    between atoms: O5_26  and  C22_27 
REMARK    7  A    between atoms: C22_27  and  C23_29 
REMARK    8  A    between atoms: C23_29  and  C24_30 
REMARK    9  A    between atoms: C24_30  and  C25_31 
REMARK       I    between atoms: C25_31  and  N1_33 
REMARK   10  A    between atoms: N1_33  and  C26_34 
REMARK   11  A    between atoms: C26_34  and  C27_35 
ROOT
HETATM    1  C1  UNL     1       4.169   6.805   9.517  1.00  0.00     0.020 C 
HETATM    2  C2  UNL     1       2.905   5.976   9.199  1.00  0.00    -0.014 C 
HETATM    3  C3  UNL     1       3.264   4.461   9.259  1.00  0.00     0.022 C 
HETATM    4  C4  UNL     1       4.125   3.988   8.097  1.00  0.00     0.084 C 
HETATM    5  C5  UNL     1       3.465   4.322   6.785  1.00  0.00     0.149 C 
HETATM    6  O1  UNL     1       3.622   3.635   5.778  1.00  0.00    -0.293 OA
HETATM    7  C6  UNL     1       2.685   5.578   6.698  1.00  0.00     0.053 C 
HETATM    8  C7  UNL     1       2.471   6.353   7.775  1.00  0.00    -0.068 C 
HETATM    9  C8  UNL     1       1.812   7.702   7.610  1.00  0.00     0.035 C 
HETATM   10  C9  UNL     1       0.647   7.885   8.569  1.00  0.00     0.010 C 
HETATM   11  C10 UNL     1       1.060   7.649  10.032  1.00  0.00    -0.002 C 
HETATM   12  C11 UNL     1       1.701   6.235  10.192  1.00  0.00     0.031 C 
HETATM   13  C12 UNL     1       1.964   5.870  11.685  1.00  0.00     0.124 C 
HETATM   14  C13 UNL     1       0.762   6.140  12.615  1.00  0.00     0.045 C 
HETATM   15  C14 UNL     1       0.147   7.549  12.457  1.00  0.00     0.001 C 
HETATM   16  C15 UNL     1       1.094   8.640  13.023  1.00  0.00     0.019 C 
HETATM   17  C16 UNL     1      -0.169   7.739  10.953  1.00  0.00     0.002 C 
HETATM   18  C17 UNL     1      -1.011   9.008  10.926  1.00  0.00     0.009 C 
HETATM   19  C18 UNL     1      -1.860   8.922  12.209  1.00  0.00     0.047 C 
HETATM   20  C19 UNL     1      -1.287   7.742  13.056  1.00  0.00     0.128 C 
ENDROOT
BRANCH  20  21
HETATM   21  O3  UNL     1      -2.098   6.601  12.756  1.00  0.00    -0.381 OA
HETATM   22  H27 UNL     1      -2.989   6.781  13.123  1.00  0.00     0.211 HD
ENDBRANCH  20  21
BRANCH  20  23
HETATM   23  C20 UNL     1      -1.316   8.047  14.577  1.00  0.00     0.185 C 
HETATM   24  O4  UNL     1      -0.745   9.037  15.047  1.00  0.00    -0.292 OA
BRANCH  23  25
HETATM   25  C21 UNL     1      -1.987   7.043  15.523  1.00  0.00     0.260 C 
BRANCH  25  26
HETATM   26  O5  UNL     1      -3.198   7.375  16.184  1.00  0.00    -0.314 OA
BRANCH  26  27
HETATM   27  C22 UNL     1      -4.211   7.752  15.362  1.00  0.00     0.259 C 
HETATM   28  O6  UNL     1      -4.709   7.031  14.504  1.00  0.00    -0.265 OA
BRANCH  27  29
HETATM   29  C23 UNL     1      -4.747   9.122  15.707  1.00  0.00     0.120 C 
BRANCH  29  30
HETATM   30  C24 UNL     1      -4.117  10.272  14.930  1.00  0.00     0.112 C 
BRANCH  30  31
HETATM   31  C25 UNL     1      -3.218  11.131  15.798  1.00  0.00     0.218 C 
HETATM   32  O7  UNL     1      -2.939  12.293  15.530  1.00  0.00    -0.274 OA
HETATM   33  N1  UNL     1      -2.732  10.461  16.898  1.00  0.00    -0.357 N 
HETATM   34  H34 UNL     1      -3.144   9.575  17.151  1.00  0.00     0.162 HD
BRANCH  33  35
HETATM   35  C26 UNL     1      -1.930  11.133  17.897  1.00  0.00     0.161 C 
BRANCH  35  36
HETATM   36  C27 UNL     1      -2.736  12.172  18.628  1.00  0.00    -0.038 A 
HETATM   37  C28 UNL     1      -4.022  11.891  19.097  1.00  0.00     0.025 A 
HETATM   38  C29 UNL     1      -4.727  12.896  19.744  1.00  0.00     0.088 A 
HETATM   39  N2  UNL     1      -4.248  14.142  19.944  1.00  0.00    -0.375 N 
HETATM   40  C30 UNL     1      -3.006  14.396  19.478  1.00  0.00     0.088 A 
ATOM     41  H2  UNL     1      -4.797  14.855  20.424  1.00  0.00     0.164 HD
HETATM   42  C31 UNL     1      -2.224  13.460  18.822  1.00  0.00     0.025 A 
ENDBRANCH  35  36
ENDBRANCH  33  35
ENDBRANCH  30  31
ENDBRANCH  29  30
ENDBRANCH  27  29
ENDBRANCH  26  27
ENDBRANCH  25  26
ENDBRANCH  23  25
ENDBRANCH  20  23
BRANCH  13  43
HETATM   43  O2  UNL     1       3.117   6.496  12.228  1.00  0.00    -0.395 OA
HETATM   44  H16 UNL     1       3.190   7.396  11.875  1.00  0.00     0.210 HD
ENDBRANCH  13  43
TORSDOF 11
ENDMDL
