MODEL 1
REMARK minimizedAffinity -8.34959316
REMARK CNNscore 0.738543391
REMARK CNNaffinity 6.75703001
REMARK  19 active torsions:
REMARK  status: ('A' for Active; 'I' for Inactive)
REMARK    1  A    between atoms: C14_15  and  O2_16 
REMARK    2  A    between atoms: C14_15  and  C15_17 
REMARK    3  A    between atoms: C15_17  and  C16_19 
REMARK    4  A    between atoms: C16_19  and  O4_20 
REMARK    5  A    between atoms: O4_20  and  C17_21 
REMARK    6  A    between atoms: C17_21  and  C18_23 
REMARK    7  A    between atoms: C18_23  and  C19_24 
REMARK    8  A    between atoms: C19_24  and  C20_25 
REMARK       I    between atoms: C20_25  and  N1_27 
REMARK    9  A    between atoms: N1_27  and  C21_28 
REMARK   10  A    between atoms: C21_28  and  C22_29 
REMARK   11  A    between atoms: C22_29  and  C23_30 
REMARK   12  A    between atoms: C23_30  and  C24_31 
REMARK   13  A    between atoms: C24_31  and  C25_32 
REMARK   14  A    between atoms: C25_32  and  C26_33 
REMARK       I    between atoms: C26_33  and  N2_35 
REMARK   15  A    between atoms: N2_35  and  C27_36 
REMARK   16  A    between atoms: C27_36  and  C28_37 
REMARK   17  A    between atoms: C27_36  and  C35_44 
REMARK   18  A    between atoms: C28_37  and  C29_38 
REMARK   19  A    between atoms: C35_44  and  O9_46 
ROOT
HETATM    1  C17 UNL     1      -9.333  47.411 -20.102  1.00  0.00     0.259 C 
HETATM    2  O5  UNL     1      -9.277  46.206 -20.324  1.00  0.00    -0.265 OA
ENDROOT
BRANCH   1   3
HETATM    3  O4  UNL     1      -8.341  48.304 -20.353  1.00  0.00    -0.314 OA
BRANCH   3   4
HETATM    4  C16 UNL     1      -7.075  47.955 -19.786  1.00  0.00     0.260 C 
BRANCH   4   5
HETATM    5  C15 UNL     1      -6.011  47.738 -20.862  1.00  0.00     0.185 C 
HETATM    6  O3  UNL     1      -6.200  46.956 -21.799  1.00  0.00    -0.292 OA
BRANCH   5   7
HETATM    7  C14 UNL     1      -4.677  48.515 -20.678  1.00  0.00     0.128 C 
HETATM    8  C13 UNL     1      -3.533  47.514 -20.914  1.00  0.00     0.047 C 
HETATM    9  C12 UNL     1      -3.057  47.726 -22.357  1.00  0.00     0.009 C 
HETATM   10  C11 UNL     1      -3.911  48.863 -22.950  1.00  0.00     0.002 C 
HETATM   11  C10 UNL     1      -3.225  49.725 -24.035  1.00  0.00    -0.004 C 
HETATM   12  C36 UNL     1      -4.392  49.653 -21.712  1.00  0.00    -0.002 C 
HETATM   13  C9  UNL     1      -2.695  48.850 -25.180  1.00  0.00     0.010 C 
HETATM   14  C40 UNL     1      -2.103  50.636 -23.477  1.00  0.00     0.002 C 
HETATM   15  C8  UNL     1      -2.116  49.701 -26.301  1.00  0.00     0.035 C 
HETATM   16  C7  UNL     1      -1.038  50.629 -25.795  1.00  0.00    -0.068 C 
HETATM   17  C2  UNL     1      -1.398  51.509 -24.592  1.00  0.00    -0.016 C 
HETATM   18  C6  UNL     1       0.152  50.669 -26.422  1.00  0.00     0.053 C 
HETATM   19  C1  UNL     1      -2.307  52.656 -25.094  1.00  0.00     0.020 C 
HETATM   20  C3  UNL     1      -0.102  52.121 -23.980  1.00  0.00     0.022 C 
HETATM   21  C4  UNL     1       0.859  52.689 -25.014  1.00  0.00     0.084 C 
HETATM   22  C5  UNL     1       1.198  51.648 -26.049  1.00  0.00     0.149 C 
HETATM   23  O1  UNL     1       2.277  51.634 -26.637  1.00  0.00    -0.293 OA
HETATM   24  C39 UNL     1      -2.645  51.470 -22.299  1.00  0.00     0.007 C 
HETATM   25  C38 UNL     1      -3.260  50.594 -21.206  1.00  0.00     0.013 C 
HETATM   26  C37 UNL     1      -5.640  50.506 -22.007  1.00  0.00     0.019 C 
BRANCH   7  27
HETATM   27  O2  UNL     1      -4.592  49.019 -19.348  1.00  0.00    -0.381 OA
HETATM   28  H19 UNL     1      -5.188  49.785 -19.270  1.00  0.00     0.211 HD
ENDBRANCH   7  27
ENDBRANCH   5   7
ENDBRANCH   4   5
ENDBRANCH   3   4
ENDBRANCH   1   3
BRANCH   1  29
HETATM   29  C18 UNL     1     -10.524  48.113 -19.500  1.00  0.00     0.120 C 
BRANCH  29  30
HETATM   30  C19 UNL     1     -10.795  47.620 -18.086  1.00  0.00     0.112 C 
BRANCH  30  31
HETATM   31  C20 UNL     1     -12.275  47.361 -17.914  1.00  0.00     0.217 C 
HETATM   32  O6  UNL     1     -12.880  47.700 -16.902  1.00  0.00    -0.274 OA
HETATM   33  N1  UNL     1     -12.845  46.660 -18.954  1.00  0.00    -0.361 N 
HETATM   34  H26 UNL     1     -12.218  46.204 -19.614  1.00  0.00     0.162 HD
BRANCH  33  35
HETATM   35  C21 UNL     1     -14.192  46.138 -18.856  1.00  0.00     0.122 C 
BRANCH  35  36
HETATM   36  C22 UNL     1     -15.169  47.021 -19.630  1.00  0.00     0.020 C 
BRANCH  36  37
HETATM   37  C23 UNL     1     -14.695  47.360 -21.043  1.00  0.00     0.002 C 
BRANCH  37  38
HETATM   38  C24 UNL     1     -15.668  46.993 -22.174  1.00  0.00     0.009 C 
BRANCH  38  39
HETATM   39  C25 UNL     1     -15.156  45.931 -23.147  1.00  0.00     0.103 C 
BRANCH  39  40
HETATM   40  C26 UNL     1     -15.934  45.891 -24.448  1.00  0.00     0.218 C 
HETATM   41  O7  UNL     1     -15.493  46.306 -25.515  1.00  0.00    -0.274 OA
HETATM   42  N2  UNL     1     -17.202  45.371 -24.313  1.00  0.00    -0.346 N 
HETATM   43  H37 UNL     1     -17.575  45.276 -23.376  1.00  0.00     0.163 HD
BRANCH  42  44
HETATM   44  C27 UNL     1     -18.162  45.395 -25.422  1.00  0.00     0.186 C 
BRANCH  44  45
HETATM   45  C28 UNL     1     -18.705  44.002 -25.798  1.00  0.00     0.074 C 
BRANCH  45  46
HETATM   46  C29 UNL     1     -18.601  43.712 -27.280  1.00  0.00    -0.056 A 
HETATM   47  C30 UNL     1     -19.756  43.546 -28.058  1.00  0.00     0.007 A 
HETATM   48  C31 UNL     1     -19.654  43.296 -29.427  1.00  0.00     0.001 A 
HETATM   49  C32 UNL     1     -18.401  43.208 -30.029  1.00  0.00     0.000 A 
HETATM   50  C33 UNL     1     -17.247  43.369 -29.265  1.00  0.00     0.001 A 
HETATM   51  C34 UNL     1     -17.346  43.619 -27.897  1.00  0.00     0.007 A 
ENDBRANCH  45  46
ENDBRANCH  44  45
BRANCH  44  52
HETATM   52  C35 UNL     1     -19.263  46.431 -25.146  1.00  0.00     0.163 C 
HETATM   53  O8  UNL     1     -20.471  46.229 -25.183  1.00  0.00    -0.648 OA
BRANCH  52  54
HETATM   54  O9  UNL     1     -18.810  47.642 -24.764  1.00  0.00    -0.775 OA
HETATM   55  H46 UNL     1     -19.622  48.189 -24.710  1.00  0.00     0.167 HD
ENDBRANCH  52  54
ENDBRANCH  44  52
ENDBRANCH  42  44
ENDBRANCH  39  40
ENDBRANCH  38  39
ENDBRANCH  37  38
ENDBRANCH  36  37
ENDBRANCH  35  36
ENDBRANCH  33  35
ENDBRANCH  30  31
ENDBRANCH  29  30
ENDBRANCH   1  29
TORSDOF 19
ENDMDL
