MODEL 1
REMARK minimizedAffinity -7.71437407
REMARK  3 active torsions:
REMARK  status: ('A' for Active; 'I' for Inactive)
REMARK    1  A    between atoms: C8_8  and  N1_9 
REMARK       I    between atoms: N1_9  and  C9_10 
REMARK    2  A    between atoms: C9_10  and  C10_12 
REMARK    3  A    between atoms: C14_18  and  O2_19 
ROOT
HETATM    1  N1  UNL     1      -7.041   5.062  13.239  1.00  0.00    -0.322 N 
HETATM    2  C9  UNL     1      -6.992   3.704  12.984  1.00  0.00     0.260 C 
HETATM    3  O1  UNL     1      -7.887   2.888  13.193  1.00  0.00    -0.267 OA
HETATM    4  H10 UNL     1      -6.149   5.485  13.454  1.00  0.00     0.169 HD
ENDROOT
BRANCH   2   5
HETATM    5  C10 UNL     1      -5.690   3.181  12.502  1.00  0.00     0.083 A 
HETATM    6  C11 UNL     1      -4.480   3.834  12.772  1.00  0.00     0.023 A 
HETATM    7  C12 UNL     1      -3.288   3.291  12.298  1.00  0.00     0.018 A 
HETATM    8  C13 UNL     1      -3.345   2.118  11.565  1.00  0.00     0.090 A 
HETATM    9  N2  UNL     1      -4.495   1.474  11.273  1.00  0.00    -0.346 N 
HETATM   10  C14 UNL     1      -5.642   2.020  11.730  1.00  0.00     0.155 A 
ATOM     11  H2  UNL     1      -4.497   0.611  10.731  1.00  0.00     0.167 HD
BRANCH  10  12
HETATM   12  O2  UNL     1      -6.759   1.319  11.370  1.00  0.00    -0.345 OA
HETATM   13  H14 UNL     1      -7.537   1.869  11.601  1.00  0.00     0.219 HD
ENDBRANCH  10  12
ENDBRANCH   2   5
BRANCH   1  14
HETATM   14  C8  UNL     1      -8.181   5.784  13.681  1.00  0.00     0.046 A 
HETATM   15  C2  UNL     1      -9.218   6.198  12.817  1.00  0.00    -0.035 A 
HETATM   16  C1  UNL     1      -9.209   6.015  11.323  1.00  0.00     0.050 C 
HETATM   17  C3  UNL     1     -10.330   6.874  13.356  1.00  0.00     0.009 A 
HETATM   18  C4  UNL     1     -10.394   7.193  14.707  1.00  0.00     0.001 A 
HETATM   19  C5  UNL     1      -9.343   6.847  15.546  1.00  0.00     0.009 A 
HETATM   20  C6  UNL     1      -8.230   6.148  15.051  1.00  0.00    -0.035 A 
HETATM   21  C7  UNL     1      -7.141   5.781  16.027  1.00  0.00     0.050 C 
ENDBRANCH   1  14
TORSDOF 3
ENDMDL
