MODEL 1
REMARK minimizedAffinity -9.88199329
REMARK  7 active torsions:
REMARK  status: ('A' for Active; 'I' for Inactive)
REMARK    1  A    between atoms: C2_2  and  C3_3 
REMARK    2  A    between atoms: C2_2  and  C9_11 
REMARK    3  A    between atoms: C3_3  and  C4_4 
REMARK    4  A    between atoms: C5_5  and  C6_6 
REMARK    5  A    between atoms: C6_6  and  O1_9 
REMARK    6  A    between atoms: O1_9  and  O2_10 
REMARK    7  A    between atoms: C10_12  and  O3_13 
ROOT
HETATM    1  C9  UNL     1      -5.608   6.725  14.972  1.00  0.00     0.028 C 
HETATM    2  C10 UNL     1      -6.126   7.985  14.202  1.00  0.00     0.124 C 
HETATM    3  C11 UNL     1      -4.966   8.505  13.327  1.00  0.00     0.046 C 
HETATM    4  C12 UNL     1      -3.713   7.804  13.888  1.00  0.00    -0.010 C 
HETATM    5  C13 UNL     1      -3.260   8.620  15.141  1.00  0.00     0.021 C 
HETATM    6  C14 UNL     1      -2.482   7.717  12.985  1.00  0.00    -0.070 C 
HETATM    7  C15 UNL     1      -2.155   8.711  12.133  1.00  0.00    -0.022 C 
HETATM    8  C16 UNL     1      -0.910   8.739  11.289  1.00  0.00     0.034 C 
HETATM    9  C17 UNL     1      -0.174   7.389  11.299  1.00  0.00     0.013 C 
HETATM   10  C18 UNL     1       1.128   7.314  10.442  1.00  0.00     0.018 C 
HETATM   11  C19 UNL     1       0.833   7.736   8.986  1.00  0.00     0.023 C 
HETATM   12  C20 UNL     1       2.296   8.162  10.960  1.00  0.00     0.023 C 
HETATM   13  C21 UNL     1       1.592   5.846  10.409  1.00  0.00     0.135 C 
HETATM   14  O4  UNL     1       2.444   5.447   9.613  1.00  0.00    -0.297 OA
HETATM   15  C22 UNL     1       0.951   4.883  11.388  1.00  0.00     0.080 C 
HETATM   16  C23 UNL     1       0.833   5.541  12.755  1.00  0.00     0.017 C 
HETATM   17  C24 UNL     1      -0.074   6.807  12.764  1.00  0.00    -0.031 C 
HETATM   18  C25 UNL     1       0.531   7.799  13.794  1.00  0.00     0.016 C 
HETATM   19  C26 UNL     1      -1.572   6.484  13.173  1.00  0.00     0.024 C 
HETATM   20  C27 UNL     1      -1.759   5.831  14.564  1.00  0.00     0.010 C 
HETATM   21  C28 UNL     1      -3.226   5.579  14.992  1.00  0.00     0.011 C 
HETATM   22  C29 UNL     1      -4.284   6.376  14.197  1.00  0.00    -0.026 C 
HETATM   23  C30 UNL     1      -4.672   5.572  12.913  1.00  0.00     0.016 C 
ENDROOT
BRANCH   1  24
HETATM   24  C2  UNL     1      -6.700   5.612  15.129  1.00  0.00    -0.008 C 
HETATM   25  C1  UNL     1      -7.825   6.055  16.077  1.00  0.00     0.011 C 
BRANCH  24  26
HETATM   26  C3  UNL     1      -7.300   5.210  13.755  1.00  0.00     0.031 C 
BRANCH  26  27
HETATM   27  C4  UNL     1      -8.577   5.927  13.415  1.00  0.00    -0.027 C 
HETATM   28  C5  UNL     1      -9.324   6.606  14.304  1.00  0.00     0.009 C 
BRANCH  28  29
HETATM   29  C6  UNL     1     -10.618   7.352  14.023  1.00  0.00     0.106 C 
HETATM   30  C7  UNL     1     -10.863   7.339  12.508  1.00  0.00     0.053 C 
HETATM   31  C8  UNL     1     -10.527   8.809  14.498  1.00  0.00     0.053 C 
BRANCH  29  32
HETATM   32  O1  UNL     1     -11.767   6.696  14.602  1.00  0.00    -0.229 OA
BRANCH  32  33
HETATM   33  O2  UNL     1     -12.425   7.634  15.509  1.00  0.00    -0.249 OA
HETATM   34  H15 UNL     1     -13.287   7.632  15.057  1.00  0.00     0.253 HD
ENDBRANCH  32  33
ENDBRANCH  29  32
ENDBRANCH  28  29
ENDBRANCH  26  27
ENDBRANCH  24  26
ENDBRANCH   1  24
BRANCH   2  35
HETATM   35  O3  UNL     1      -6.488   9.020  15.112  1.00  0.00    -0.395 OA
HETATM   36  H18 UNL     1      -7.197   8.694  15.689  1.00  0.00     0.210 HD
ENDBRANCH   2  35
TORSDOF 7
ENDMDL
