MODEL 1
REMARK minimizedAffinity -7.64016581
REMARK CNNscore 0.316910237
REMARK CNNaffinity 6.41704321
REMARK  6 active torsions:
REMARK  status: ('A' for Active; 'I' for Inactive)
REMARK    1  A    between atoms: C2_2  and  O2_4 
REMARK    2  A    between atoms: O2_4  and  C3_5 
REMARK    3  A    between atoms: C13_15  and  C14_16 
REMARK    4  A    between atoms: C14_16  and  C16_18 
REMARK    5  A    between atoms: C17_19  and  C18_20 
REMARK    6  A    between atoms: C18_20  and  C20_22 
ROOT
HETATM    1  C3  UNL     1     -10.067  47.668 -18.464  1.00  0.00     0.135 C 
HETATM    2  C4  UNL     1      -9.252  48.735 -17.728  1.00  0.00     0.034 C 
HETATM    3  C5  UNL     1      -8.201  49.396 -18.625  1.00  0.00     0.015 C 
HETATM    4  C6  UNL     1      -7.239  48.372 -19.280  1.00  0.00     0.001 C 
HETATM    5  C7  UNL     1      -6.358  47.734 -18.176  1.00  0.00     0.019 C 
HETATM    6  C8  UNL     1      -6.355  49.093 -20.366  1.00  0.00     0.039 C 
HETATM    7  C9  UNL     1      -4.979  49.623 -19.948  1.00  0.00     0.010 C 
HETATM    8  C10 UNL     1      -4.328  50.480 -21.062  1.00  0.00     0.010 C 
HETATM    9  C11 UNL     1      -4.674  50.037 -22.511  1.00  0.00    -0.033 C 
HETATM   10  C12 UNL     1      -5.790  50.932 -23.101  1.00  0.00     0.016 C 
HETATM   11  C13 UNL     1      -3.446  49.979 -23.481  1.00  0.00     0.001 C 
HETATM   12  C23 UNL     1      -3.897  48.956 -24.565  1.00  0.00     0.006 C 
HETATM   13  C24 UNL     1      -4.999  48.088 -23.938  1.00  0.00     0.009 C 
HETATM   14  C25 UNL     1      -5.043  48.536 -22.483  1.00  0.00     0.036 C 
HETATM   15  C26 UNL     1      -6.258  48.159 -21.619  1.00  0.00     0.123 C 
HETATM   16  C27 UNL     1      -7.637  48.165 -22.236  1.00  0.00     0.014 C 
HETATM   17  C28 UNL     1      -8.600  47.767 -21.387  1.00  0.00     0.014 C 
HETATM   18  C29 UNL     1      -8.075  47.276 -20.045  1.00  0.00     0.124 C 
HETATM   19  C30 UNL     1      -9.171  46.645 -19.172  1.00  0.00     0.079 C 
HETATM   20  O3  UNL     1      -7.159  46.222 -20.430  1.00  0.00    -0.223 OA
HETATM   21  O4  UNL     1      -5.983  46.808 -21.140  1.00  0.00    -0.224 OA
ENDROOT
BRANCH  11  22
HETATM   22  C14 UNL     1      -2.905  51.300 -24.091  1.00  0.00     0.008 C 
HETATM   23  C15 UNL     1      -2.795  52.432 -23.062  1.00  0.00     0.014 C 
BRANCH  22  24
HETATM   24  C16 UNL     1      -1.589  51.050 -24.814  1.00  0.00    -0.026 C 
HETATM   25  C17 UNL     1      -1.368  51.116 -26.138  1.00  0.00    -0.026 C 
BRANCH  25  26
HETATM   26  C18 UNL     1      -0.026  50.835 -26.784  1.00  0.00     0.007 C 
HETATM   27  C19 UNL     1       1.060  50.995 -25.716  1.00  0.00     0.014 C 
BRANCH  26  28
HETATM   28  C20 UNL     1       0.206  51.756 -28.017  1.00  0.00    -0.015 C 
HETATM   29  C21 UNL     1       1.700  52.012 -28.260  1.00  0.00     0.010 C 
HETATM   30  C22 UNL     1      -0.508  53.105 -27.877  1.00  0.00     0.010 C 
ENDBRANCH  26  28
ENDBRANCH  25  26
ENDBRANCH  22  24
ENDBRANCH  11  22
BRANCH   1  31
HETATM   31  O2  UNL     1     -10.918  48.351 -19.407  1.00  0.00    -0.316 OA
BRANCH  31  32
HETATM   32  C2  UNL     1     -12.195  47.889 -19.511  1.00  0.00     0.255 C 
HETATM   33  C1  UNL     1     -12.683  47.426 -18.173  1.00  0.00     0.126 C 
HETATM   34  O1  UNL     1     -12.850  47.836 -20.541  1.00  0.00    -0.266 OA
ENDBRANCH  31  32
ENDBRANCH   1  31
TORSDOF 6
ENDMDL
