MODEL 1
REMARK minimizedAffinity -7.46039152
REMARK CNNscore 0.553753197
REMARK CNNaffinity 6.05051184
REMARK  6 active torsions:
REMARK  status: ('A' for Active; 'I' for Inactive)
REMARK    1  A    between atoms: C2_2  and  C30_31 
REMARK    2  A    between atoms: C3_3  and  C4_4 
REMARK    3  A    between atoms: C4_4  and  C5_5 
REMARK    4  A    between atoms: C5_5  and  C6_6 
REMARK    5  A    between atoms: C6_6  and  C8_8 
REMARK    6  A    between atoms: C30_31  and  O3_33 
ROOT
HETATM    1  C8  UNL     1     -13.131  45.969 -26.459  1.00  0.00    -0.002 C 
HETATM    2  C9  UNL     1     -14.281  46.132 -27.505  1.00  0.00     0.007 C 
HETATM    3  C10 UNL     1     -13.631  46.461 -28.866  1.00  0.00     0.015 C 
HETATM    4  C11 UNL     1     -12.148  46.106 -28.675  1.00  0.00    -0.013 C 
HETATM    5  C12 UNL     1     -12.039  44.551 -28.851  1.00  0.00     0.021 C 
HETATM    6  C13 UNL     1     -11.117  46.687 -29.650  1.00  0.00    -0.070 C 
HETATM    7  C14 UNL     1     -11.336  46.657 -30.978  1.00  0.00    -0.022 C 
HETATM    8  C15 UNL     1     -10.256  46.832 -32.000  1.00  0.00     0.034 C 
HETATM    9  C16 UNL     1      -8.867  46.506 -31.407  1.00  0.00     0.013 C 
HETATM   10  C17 UNL     1      -7.725  46.443 -32.485  1.00  0.00     0.018 C 
HETATM   11  C18 UNL     1      -7.660  47.633 -33.456  1.00  0.00     0.023 C 
HETATM   12  C19 UNL     1      -7.924  45.169 -33.347  1.00  0.00     0.023 C 
HETATM   13  C20 UNL     1      -6.354  46.331 -31.799  1.00  0.00     0.135 C 
HETATM   14  O1  UNL     1      -5.446  45.633 -32.252  1.00  0.00    -0.297 OA
HETATM   15  C21 UNL     1      -6.097  47.208 -30.598  1.00  0.00     0.080 C 
HETATM   16  C22 UNL     1      -7.206  47.041 -29.575  1.00  0.00     0.017 C 
HETATM   17  C23 UNL     1      -8.611  47.376 -30.128  1.00  0.00    -0.031 C 
HETATM   18  C24 UNL     1      -8.667  48.902 -30.429  1.00  0.00     0.016 C 
HETATM   19  C25 UNL     1      -9.761  47.105 -29.050  1.00  0.00     0.024 C 
HETATM   20  C26 UNL     1      -9.409  46.198 -27.851  1.00  0.00     0.010 C 
HETATM   21  C27 UNL     1     -10.510  46.129 -26.756  1.00  0.00     0.011 C 
HETATM   22  C28 UNL     1     -11.911  46.608 -27.208  1.00  0.00    -0.029 C 
HETATM   23  C29 UNL     1     -12.034  48.161 -27.054  1.00  0.00     0.016 C 
ENDROOT
BRANCH   1  24
HETATM   24  C6  UNL     1     -13.541  46.487 -25.047  1.00  0.00    -0.014 C 
HETATM   25  C7  UNL     1     -13.633  45.347 -24.025  1.00  0.00     0.010 C 
BRANCH  24  26
HETATM   26  C5  UNL     1     -14.902  47.229 -25.114  1.00  0.00     0.008 C 
BRANCH  26  27
HETATM   27  C4  UNL     1     -15.861  46.843 -23.979  1.00  0.00     0.028 C 
BRANCH  27  28
HETATM   28  C3  UNL     1     -17.203  46.440 -24.526  1.00  0.00    -0.013 C 
HETATM   29  C2  UNL     1     -18.333  46.193 -23.829  1.00  0.00     0.008 C 
HETATM   30  C1  UNL     1     -18.468  46.236 -22.335  1.00  0.00     0.055 C 
BRANCH  29  31
HETATM   31  C30 UNL     1     -19.591  45.822 -24.530  1.00  0.00     0.171 C 
HETATM   32  O2  UNL     1     -20.586  45.365 -23.993  1.00  0.00    -0.646 OA
BRANCH  31  33
HETATM   33  O3  UNL     1     -19.559  46.016 -25.860  1.00  0.00    -0.773 OA
HETATM   34  H46 UNL     1     -20.443  45.714 -26.155  1.00  0.00     0.167 HD
ENDBRANCH  31  33
ENDBRANCH  29  31
ENDBRANCH  27  28
ENDBRANCH  26  27
ENDBRANCH  24  26
ENDBRANCH   1  24
TORSDOF 6
ENDMDL
