MODEL 1
REMARK minimizedAffinity -10.0378695
REMARK CNNscore 0.529187858
REMARK CNNaffinity 6.67308378
REMARK  13 active torsions:
REMARK  status: ('A' for Active; 'I' for Inactive)
REMARK    1  A    between atoms: C19_21  and  O3_22 
REMARK    2  A    between atoms: C19_21  and  C20_23 
REMARK    3  A    between atoms: C20_23  and  C21_25 
REMARK    4  A    between atoms: C21_25  and  O5_26 
REMARK    5  A    between atoms: O5_26  and  C22_27 
REMARK    6  A    between atoms: C22_27  and  C23_29 
REMARK    7  A    between atoms: C23_29  and  C24_30 
REMARK    8  A    between atoms: C24_30  and  C25_31 
REMARK       I    between atoms: C25_31  and  N1_33 
REMARK    9  A    between atoms: N1_33  and  C26_34 
REMARK   10  A    between atoms: C26_34  and  C27_35 
REMARK   11  A    between atoms: C26_34  and  C36_45 
REMARK   12  A    between atoms: C27_35  and  C28_36 
REMARK   13  A    between atoms: C36_45  and  O9_47 
ROOT
HETATM    1  C21 UNL     1       0.578  10.603  15.210  1.00  0.00     0.260 C 
ENDROOT
BRANCH   1   2
HETATM    2  C20 UNL     1       0.771   9.583  14.085  1.00  0.00     0.185 C 
HETATM    3  O4  UNL     1       1.895   9.182  13.771  1.00  0.00    -0.292 OA
BRANCH   2   4
HETATM    4  C19 UNL     1      -0.482   9.167  13.282  1.00  0.00     0.128 C 
HETATM    5  C14 UNL     1      -1.480   8.175  13.974  1.00  0.00     0.005 C 
HETATM    6  C13 UNL     1      -2.470   8.812  14.975  1.00  0.00     0.091 C 
HETATM    7  C15 UNL     1      -0.698   7.023  14.648  1.00  0.00     0.019 C 
HETATM    8  C16 UNL     1      -2.286   7.717  12.735  1.00  0.00     0.002 C 
HETATM    9  C12 UNL     1      -3.869   8.191  14.966  1.00  0.00     0.133 C 
HETATM   10  C11 UNL     1      -4.014   6.784  14.390  1.00  0.00     0.072 C 
HETATM   11  O2  UNL     1      -4.796   8.781  15.521  1.00  0.00    -0.297 OA
HETATM   12  C2  UNL     1      -5.434   6.111  14.399  1.00  0.00    -0.009 C 
HETATM   13  C10 UNL     1      -3.376   6.668  12.983  1.00  0.00     0.003 C 
HETATM   14  C1  UNL     1      -5.780   5.686  15.844  1.00  0.00     0.021 C 
HETATM   15  C3  UNL     1      -6.549   7.029  13.837  1.00  0.00     0.022 C 
HETATM   16  C7  UNL     1      -5.368   4.846  13.517  1.00  0.00    -0.067 C 
HETATM   17  C4  UNL     1      -7.884   6.316  13.649  1.00  0.00     0.084 C 
HETATM   18  C5  UNL     1      -7.736   5.040  12.858  1.00  0.00     0.149 C 
HETATM   19  O1  UNL     1      -8.683   4.529  12.264  1.00  0.00    -0.293 OA
HETATM   20  C6  UNL     1      -6.416   4.372  12.824  1.00  0.00     0.053 C 
HETATM   21  C8  UNL     1      -4.004   4.212  13.369  1.00  0.00     0.035 C 
HETATM   22  C9  UNL     1      -3.002   5.193  12.728  1.00  0.00     0.010 C 
HETATM   23  C17 UNL     1      -1.241   7.446  11.661  1.00  0.00     0.009 C 
HETATM   24  C18 UNL     1      -0.102   8.432  11.966  1.00  0.00     0.047 C 
BRANCH   4  25
HETATM   25  O3  UNL     1      -1.167  10.375  12.920  1.00  0.00    -0.381 OA
HETATM   26  H25 UNL     1      -0.606  10.856  12.285  1.00  0.00     0.211 HD
ENDBRANCH   4  25
ENDBRANCH   2   4
ENDBRANCH   1   2
BRANCH   1  27
HETATM   27  O5  UNL     1       0.492   9.964  16.486  1.00  0.00    -0.314 OA
BRANCH  27  28
HETATM   28  C22 UNL     1       1.667   9.919  17.168  1.00  0.00     0.259 C 
HETATM   29  O6  UNL     1       2.352   8.909  17.293  1.00  0.00    -0.265 OA
BRANCH  28  30
HETATM   30  C23 UNL     1       2.093  11.273  17.683  1.00  0.00     0.120 C 
BRANCH  30  31
HETATM   31  C24 UNL     1       1.736  11.555  19.138  1.00  0.00     0.112 C 
BRANCH  31  32
HETATM   32  C25 UNL     1       2.730  10.933  20.097  1.00  0.00     0.218 C 
HETATM   33  O7  UNL     1       3.915  10.761  19.827  1.00  0.00    -0.274 OA
HETATM   34  N1  UNL     1       2.169  10.588  21.303  1.00  0.00    -0.346 N 
HETATM   35  H32 UNL     1       1.163  10.500  21.350  1.00  0.00     0.163 HD
BRANCH  34  36
HETATM   36  C26 UNL     1       2.957   9.899  22.333  1.00  0.00     0.186 C 
BRANCH  36  37
HETATM   37  C27 UNL     1       3.200  10.795  23.557  1.00  0.00     0.077 C 
BRANCH  37  38
HETATM   38  C28 UNL     1       3.814  12.117  23.209  1.00  0.00    -0.028 A 
HETATM   39  C29 UNL     1       3.135  13.297  22.976  1.00  0.00     0.096 A 
HETATM   40  N2  UNL     1       4.053  14.278  22.720  1.00  0.00    -0.365 N 
HETATM   41  C30 UNL     1       5.328  13.764  22.774  1.00  0.00     0.042 A 
HETATM   42  H37 UNL     1       3.834  15.244  22.521  1.00  0.00     0.165 HD
HETATM   43  C31 UNL     1       6.563  14.397  22.583  1.00  0.00     0.030 A 
HETATM   44  C35 UNL     1       5.211  12.406  23.070  1.00  0.00    -0.002 A 
HETATM   45  C32 UNL     1       7.715  13.614  22.692  1.00  0.00     0.002 A 
HETATM   46  C33 UNL     1       7.635  12.256  22.984  1.00  0.00     0.001 A 
HETATM   47  C34 UNL     1       6.391  11.640  23.176  1.00  0.00     0.014 A 
ENDBRANCH  37  38
ENDBRANCH  36  37
BRANCH  36  48
HETATM   48  C36 UNL     1       2.261   8.626  22.818  1.00  0.00     0.163 C 
HETATM   49  O8  UNL     1       1.857   7.716  22.112  1.00  0.00    -0.648 OA
BRANCH  48  50
HETATM   50  O9  UNL     1       2.170   8.512  24.163  1.00  0.00    -0.775 OA
HETATM   51  H42 UNL     1       1.686   7.668  24.287  1.00  0.00     0.167 HD
ENDBRANCH  48  50
ENDBRANCH  36  48
ENDBRANCH  34  36
ENDBRANCH  31  32
ENDBRANCH  30  31
ENDBRANCH  28  30
ENDBRANCH  27  28
ENDBRANCH   1  27
TORSDOF 13
ENDMDL
