MODEL 1
REMARK minimizedAffinity -9.16320801
REMARK  6 active torsions:
REMARK  status: ('A' for Active; 'I' for Inactive)
REMARK    1  A    between atoms: C2_2  and  O2_4 
REMARK    2  A    between atoms: O2_4  and  C3_5 
REMARK    3  A    between atoms: C13_15  and  C14_16 
REMARK    4  A    between atoms: C14_16  and  C16_18 
REMARK    5  A    between atoms: C16_18  and  C17_19 
REMARK    6  A    between atoms: C17_19  and  C18_20 
ROOT
HETATM    1  C3  UNL     1      -0.077  53.577 -25.175  1.00  0.00     0.132 C 
HETATM    2  C4  UNL     1       0.836  52.598 -24.430  1.00  0.00     0.033 C 
HETATM    3  C5  UNL     1       0.254  52.189 -23.078  1.00  0.00     0.013 C 
HETATM    4  C6  UNL     1      -1.153  51.637 -23.254  1.00  0.00    -0.028 A 
HETATM    5  C7  UNL     1      -1.280  50.172 -23.588  1.00  0.00     0.021 A 
HETATM    6  C8  UNL     1      -1.753  50.662 -22.224  1.00  0.00    -0.027 A 
HETATM    7  C9  UNL     1      -0.912  50.177 -21.057  1.00  0.00     0.011 C 
HETATM    8  C10 UNL     1      -1.575  48.978 -20.404  1.00  0.00     0.011 C 
HETATM    9  C11 UNL     1      -2.940  49.275 -19.744  1.00  0.00    -0.032 C 
HETATM   10  C12 UNL     1      -3.752  47.960 -19.850  1.00  0.00     0.016 C 
HETATM   11  C13 UNL     1      -2.875  49.772 -18.255  1.00  0.00    -0.002 C 
HETATM   12  C22 UNL     1      -2.619  51.280 -18.354  1.00  0.00     0.006 C 
HETATM   13  C23 UNL     1      -3.265  51.749 -19.651  1.00  0.00     0.011 C 
HETATM   14  C24 UNL     1      -3.679  50.489 -20.465  1.00  0.00    -0.032 C 
HETATM   15  C25 UNL     1      -5.227  50.368 -20.344  1.00  0.00     0.016 C 
HETATM   16  C26 UNL     1      -3.286  50.622 -21.988  1.00  0.00     0.004 C 
HETATM   17  C27 UNL     1      -4.031  51.799 -22.665  1.00  0.00     0.006 C 
HETATM   18  C28 UNL     1      -3.508  52.158 -24.048  1.00  0.00     0.006 C 
HETATM   19  C29 UNL     1      -2.065  52.642 -23.942  1.00  0.00    -0.003 C 
HETATM   20  C30 UNL     1      -1.494  53.004 -25.317  1.00  0.00     0.038 C 
ENDROOT
BRANCH  11  21
HETATM   21  C14 UNL     1      -2.029  49.086 -17.134  1.00  0.00    -0.014 C 
HETATM   22  C15 UNL     1      -2.434  47.625 -16.911  1.00  0.00     0.010 C 
BRANCH  21  23
HETATM   23  C16 UNL     1      -0.489  49.224 -17.208  1.00  0.00     0.008 C 
BRANCH  23  24
HETATM   24  C17 UNL     1       0.092  50.037 -16.040  1.00  0.00     0.028 C 
BRANCH  24  25
HETATM   25  C18 UNL     1       1.019  51.114 -16.537  1.00  0.00    -0.025 C 
HETATM   26  C19 UNL     1       2.066  51.660 -15.888  1.00  0.00    -0.091 C 
HETATM   27  C20 UNL     1       2.481  51.319 -14.482  1.00  0.00     0.042 C 
HETATM   28  C21 UNL     1       2.925  52.702 -16.555  1.00  0.00     0.042 C 
ENDBRANCH  24  25
ENDBRANCH  23  24
ENDBRANCH  21  23
ENDBRANCH  11  21
BRANCH   1  29
HETATM   29  O2  UNL     1       0.505  53.798 -26.474  1.00  0.00    -0.316 OA
BRANCH  29  30
HETATM   30  C2  UNL     1      -0.280  53.496 -27.544  1.00  0.00     0.255 C 
HETATM   31  C1  UNL     1       0.160  52.197 -28.147  1.00  0.00     0.126 C 
HETATM   32  O1  UNL     1      -1.201  54.176 -27.968  1.00  0.00    -0.266 OA
ENDBRANCH  29  30
ENDBRANCH   1  29
TORSDOF 6
ENDMDL
