MODEL 1
REMARK minimizedAffinity -8.42896461
REMARK  13 active torsions:
REMARK  status: ('A' for Active; 'I' for Inactive)
REMARK    1  A    between atoms: C4_4  and  C5_5 
REMARK    2  A    between atoms: C5_5  and  C6_6 
REMARK    3  A    between atoms: C6_6  and  C7_7 
REMARK    4  A    between atoms: C9_9  and  C10_10 
REMARK    5  A    between atoms: C11_11  and  C12_12 
REMARK    6  A    between atoms: C14_14  and  C15_15 
REMARK    7  A    between atoms: C18_18  and  O1_19 
REMARK    8  A    between atoms: C19_21  and  C20_22 
REMARK    9  A    between atoms: C20_22  and  C21_23 
REMARK   10  A    between atoms: C21_23  and  C22_24 
REMARK   11  A    between atoms: C22_24  and  O3_25 
REMARK   12  A    between atoms: C24_27  and  C26_29 
REMARK   13  A    between atoms: C29_33  and  O5_35 
ROOT
HETATM    1  C15 UNL     1      -7.425  46.816 -27.422  1.00  0.00     0.149 C 
HETATM    2  C16 UNL     1      -6.837  46.319 -28.746  1.00  0.00     0.054 C 
HETATM    3  C17 UNL     1      -7.909  46.650 -29.820  1.00  0.00     0.050 C 
HETATM    4  C18 UNL     1      -8.528  47.893 -29.156  1.00  0.00     0.270 C 
HETATM    5  O2  UNL     1      -8.545  47.649 -27.750  1.00  0.00    -0.351 OA
HETATM    6  C19 UNL     1      -7.188  46.959 -31.200  1.00  0.00     0.032 C 
HETATM    7  C23 UNL     1      -6.560  45.658 -31.745  1.00  0.00    -0.066 C 
HETATM    8  C24 UNL     1      -5.251  45.510 -32.066  1.00  0.00    -0.021 C 
HETATM    9  C25 UNL     1      -4.627  44.231 -32.547  1.00  0.00     0.052 C 
HETATM   10  C27 UNL     1      -7.571  44.544 -31.924  1.00  0.00     0.038 C 
HETATM   11  C28 UNL     1      -8.313  44.233 -30.631  1.00  0.00     0.042 C 
HETATM   12  C29 UNL     1      -8.958  45.475 -29.973  1.00  0.00     0.067 C 
HETATM   13  C30 UNL     1      -9.659  45.002 -28.688  1.00  0.00     0.047 C 
ENDROOT
BRANCH   4  14
HETATM   14  O1  UNL     1      -7.718  49.045 -29.317  1.00  0.00    -0.370 OA
HETATM   15  H26 UNL     1      -8.192  49.737 -28.823  1.00  0.00     0.212 HD
ENDBRANCH   4  14
BRANCH   6  16
HETATM   16  C20 UNL     1      -8.001  47.599 -32.359  1.00  0.00     0.012 C 
BRANCH  16  17
HETATM   17  C21 UNL     1      -8.254  46.756 -33.614  1.00  0.00     0.027 C 
BRANCH  17  18
HETATM   18  C22 UNL     1      -7.706  47.340 -34.913  1.00  0.00     0.164 C 
BRANCH  18  19
HETATM   19  O3  UNL     1      -6.399  47.864 -34.722  1.00  0.00    -0.401 OA
HETATM   20  H34 UNL     1      -6.517  48.789 -34.408  1.00  0.00     0.209 HD
ENDBRANCH  18  19
ENDBRANCH  17  18
ENDBRANCH  16  17
ENDBRANCH   6  16
BRANCH  12  21
HETATM   21  O5  UNL     1     -10.020  45.930 -30.826  1.00  0.00    -0.389 OA
HETATM   22  H46 UNL     1     -10.667  45.210 -30.933  1.00  0.00     0.210 HD
ENDBRANCH  12  21
BRANCH   1  23
HETATM   23  C14 UNL     1      -6.454  47.621 -26.602  1.00  0.00     0.011 C 
HETATM   24  C12 UNL     1      -5.265  48.145 -26.971  1.00  0.00    -0.063 C 
HETATM   25  C13 UNL     1      -4.662  47.996 -28.345  1.00  0.00     0.048 C 
BRANCH  24  26
HETATM   26  C11 UNL     1      -4.509  48.918 -25.980  1.00  0.00     0.006 C 
HETATM   27  C10 UNL     1      -3.311  48.596 -25.464  1.00  0.00     0.001 C 
BRANCH  27  28
HETATM   28  C9  UNL     1      -2.609  49.448 -24.527  1.00  0.00     0.002 C 
HETATM   29  C7  UNL     1      -1.734  50.427 -24.832  1.00  0.00    -0.084 C 
HETATM   30  C8  UNL     1      -1.240  50.741 -26.220  1.00  0.00     0.043 C 
BRANCH  29  31
HETATM   31  C6  UNL     1      -1.147  51.293 -23.726  1.00  0.00     0.037 C 
BRANCH  31  32
HETATM   32  C5  UNL     1       0.168  52.002 -24.099  1.00  0.00     0.031 C 
BRANCH  32  33
HETATM   33  C4  UNL     1       0.585  53.047 -23.096  1.00  0.00    -0.024 C 
HETATM   34  C2  UNL     1       0.751  52.916 -21.764  1.00  0.00    -0.091 C 
HETATM   35  C1  UNL     1       0.546  51.653 -20.975  1.00  0.00     0.042 C 
HETATM   36  C3  UNL     1       1.187  54.096 -20.933  1.00  0.00     0.042 C 
ENDBRANCH  32  33
ENDBRANCH  31  32
ENDBRANCH  29  31
ENDBRANCH  27  28
ENDBRANCH  24  26
ENDBRANCH   1  23
BRANCH   8  37
HETATM   37  C26 UNL     1      -4.291  46.653 -32.013  1.00  0.00     0.265 C 
HETATM   38  O4  UNL     1      -4.587  47.797 -32.336  1.00  0.00    -0.302 OA
ENDBRANCH   8  37
TORSDOF 13
ENDMDL
