MODEL 1
REMARK minimizedAffinity -6.05477142
REMARK  8 active torsions:
REMARK  status: ('A' for Active; 'I' for Inactive)
REMARK    1  A    between atoms: C2_2  and  N1_3 
REMARK    2  A    between atoms: N1_3  and  C3_4 
REMARK    3  A    between atoms: N1_3  and  C5_6 
REMARK    4  A    between atoms: C5_6  and  C6_7 
REMARK    5  A    between atoms: C6_7  and  O1_8 
REMARK    6  A    between atoms: O1_8  and  C7_9 
REMARK    7  A    between atoms: C7_9  and  C8_11 
REMARK    8  A    between atoms: C11_14  and  N2_15 
ROOT
HETATM    1  C8  UNL     1      -6.015   3.679  12.615  1.00  0.00     0.061 A 
HETATM    2  C9  UNL     1      -5.274   4.769  13.087  1.00  0.00     0.021 A 
HETATM    3  C10 UNL     1      -3.951   4.947  12.673  1.00  0.00     0.024 A 
HETATM    4  C11 UNL     1      -3.342   4.024  11.819  1.00  0.00     0.007 A 
HETATM    5  C12 UNL     1      -4.107   2.971  11.309  1.00  0.00     0.048 A 
HETATM    6  C13 UNL     1      -5.434   2.781  11.717  1.00  0.00     0.052 A 
HETATM    7 CL1  UNL     1      -6.270   1.401  11.102  1.00  0.00    -0.083 Cl
ENDROOT
BRANCH   1   8
HETATM    8  C7  UNL     1      -7.416   3.535  13.047  1.00  0.00     0.295 C 
HETATM    9  O2  UNL     1      -8.105   2.550  12.856  1.00  0.00    -0.259 OA
BRANCH   8  10
HETATM   10  O1  UNL     1      -7.778   4.674  13.688  1.00  0.00    -0.316 OA
BRANCH  10  11
HETATM   11  C6  UNL     1      -8.490   5.631  12.881  1.00  0.00     0.209 C 
BRANCH  11  12
HETATM   12  C5  UNL     1      -9.591   6.324  13.701  1.00  0.00     0.299 C 
BRANCH  12  13
HETATM   13  N1  UNL     1      -9.032   7.294  14.670  1.00  0.00     0.089 N 
BRANCH  13  14
HETATM   14  C2  UNL     1      -8.849   6.636  15.980  1.00  0.00     0.268 C 
HETATM   15  C1  UNL     1      -7.412   6.673  16.490  1.00  0.00     0.037 C 
ENDBRANCH  13  14
BRANCH  13  16
HETATM   16  C3  UNL     1      -9.883   8.495  14.794  1.00  0.00     0.268 C 
HETATM   17  C4  UNL     1      -9.142   9.758  15.218  1.00  0.00     0.037 C 
ENDBRANCH  13  16
ENDBRANCH  12  13
ENDBRANCH  11  12
ENDBRANCH  10  11
ENDBRANCH   8  10
ENDBRANCH   1   8
BRANCH   4  18
HETATM   18  N2  UNL     1      -2.063   4.276  11.314  1.00  0.00    -0.303 NA
HETATM   19  H17 UNL     1      -1.472   4.838  11.919  1.00  0.00     0.124 HD
HETATM   20  H18 UNL     1      -1.579   3.455  10.959  1.00  0.00     0.124 HD
ENDBRANCH   4  18
TORSDOF 8
ENDMDL
