MODEL 1
REMARK minimizedAffinity -8.63324356
REMARK CNNscore 0.609939814
REMARK CNNaffinity 7.04774714
REMARK  5 active torsions:
REMARK  status: ('A' for Active; 'I' for Inactive)
REMARK    1  A    between atoms: C2_2  and  C3_3 
REMARK    2  A    between atoms: C6_6  and  C7_7 
REMARK    3  A    between atoms: C7_7  and  O1_8 
REMARK    4  A    between atoms: C7_7  and  C8_9 
REMARK    5  A    between atoms: C26_32  and  O6_33 
ROOT
HETATM    1  C3  UNL     1       4.611  54.966  -7.214  1.00  0.00     0.008 C 
HETATM    2  C4  UNL     1       4.117  56.068  -8.123  1.00  0.00    -0.023 C 
HETATM    3  C5  UNL     1       2.850  56.494  -8.256  1.00  0.00     0.005 C 
HETATM    4  C6  UNL     1       1.610  55.962  -7.575  1.00  0.00     0.187 C 
HETATM    5  O2  UNL     1       0.783  55.511  -8.673  1.00  0.00    -0.308 OA
HETATM    6  C12 UNL     1      -0.211  54.624  -8.373  1.00  0.00     0.276 C 
HETATM    7  O3  UNL     1      -0.441  54.224  -7.235  1.00  0.00    -0.264 OA
HETATM    8  C13 UNL     1      -0.995  54.215  -9.670  1.00  0.00     0.095 C 
HETATM    9  C14 UNL     1      -1.136  55.524 -10.503  1.00  0.00     0.036 C 
HETATM   10  C15 UNL     1      -2.386  53.776  -9.241  1.00  0.00     0.003 C 
HETATM   11  C16 UNL     1      -3.365  53.336 -10.044  1.00  0.00     0.072 C 
HETATM   12  C17 UNL     1      -3.297  53.184 -11.512  1.00  0.00     0.245 C 
HETATM   13  O4  UNL     1      -4.335  53.254 -12.162  1.00  0.00    -0.268 OA
HETATM   14  N1  UNL     1      -2.120  52.880 -12.127  1.00  0.00    -0.320 N 
HETATM   15  C18 UNL     1      -0.849  52.638 -11.650  1.00  0.00     0.098 C 
HETATM   16  C19 UNL     1      -0.317  53.123 -10.512  1.00  0.00     0.045 C 
HETATM   17  C20 UNL     1       0.998  52.562 -10.067  1.00  0.00     0.194 C 
HETATM   18  O5  UNL     1       1.350  52.644  -8.900  1.00  0.00    -0.287 OA
HETATM   19  C21 UNL     1       1.872  51.839 -11.017  1.00  0.00     0.046 A 
HETATM   20  C22 UNL     1       1.332  51.443 -12.237  1.00  0.00     0.032 A 
HETATM   21  C23 UNL     1       2.081  50.685 -13.152  1.00  0.00     0.026 A 
HETATM   22  C24 UNL     1       3.382  50.278 -12.845  1.00  0.00    -0.027 A 
HETATM   23  C25 UNL     1       4.155  49.423 -13.808  1.00  0.00     0.051 C 
HETATM   24  C26 UNL     1       3.911  50.635 -11.604  1.00  0.00     0.086 A 
HETATM   25  C27 UNL     1       3.189  51.448 -10.706  1.00  0.00     0.059 A 
HETATM   26  C28 UNL     1       3.913  51.826  -9.468  1.00  0.00     0.163 C 
HETATM   27  O7  UNL     1       4.458  50.916  -8.841  1.00  0.00    -0.292 OA
HETATM   28  C29 UNL     1       4.165  53.293  -9.174  1.00  0.00     0.084 C 
HETATM   29  C30 UNL     1       4.225  53.539  -7.663  1.00  0.00     0.016 C 
HETATM   30  C31 UNL     1      -0.052  51.784 -12.584  1.00  0.00     0.210 C 
HETATM   31  O8  UNL     1      -0.549  51.400 -13.640  1.00  0.00    -0.285 OA
HETATM   32  H24 UNL     1      -2.277  52.574 -13.088  1.00  0.00     0.169 HD
ENDROOT
BRANCH   4  33
HETATM   33  C7  UNL     1       0.889  57.078  -6.747  1.00  0.00     0.174 C 
BRANCH  33  34
HETATM   34  O1  UNL     1      -0.539  56.996  -6.819  1.00  0.00    -0.389 OA
HETATM   35  H11 UNL     1      -0.785  56.086  -7.084  1.00  0.00     0.210 HD
ENDBRANCH  33  34
BRANCH  33  36
HETATM   36  C8  UNL     1       1.229  57.005  -5.282  1.00  0.00     0.009 C 
HETATM   37  C9  UNL     1       2.237  57.605  -4.618  1.00  0.00    -0.089 C 
HETATM   38  C10 UNL     1       2.421  57.374  -3.140  1.00  0.00     0.042 C 
HETATM   39  C11 UNL     1       3.246  58.544  -5.223  1.00  0.00     0.042 C 
ENDBRANCH  33  36
ENDBRANCH   4  33
BRANCH   1  40
HETATM   40  C2  UNL     1       6.123  55.110  -6.914  1.00  0.00     0.004 C 
HETATM   41  C1  UNL     1       7.012  55.442  -8.104  1.00  0.00     0.006 C 
ENDBRANCH   1  40
BRANCH  24  42
HETATM   42  O6  UNL     1       5.159  50.151 -11.297  1.00  0.00    -0.359 OA
HETATM   43  H29 UNL     1       5.267  50.159 -10.318  1.00  0.00     0.217 HD
ENDBRANCH  24  42
TORSDOF 5
ENDMDL
