MODEL 1
REMARK minimizedAffinity -8.00132465
REMARK  14 active torsions:
REMARK  status: ('A' for Active; 'I' for Inactive)
REMARK    1  A    between atoms: O1_2  and  C2_3 
REMARK    2  A    between atoms: C2_3  and  C3_4 
REMARK    3  A    between atoms: C2_3  and  C24_30 
REMARK    4  A    between atoms: C3_4  and  C5_6 
REMARK    5  A    between atoms: C6_8  and  C8_10 
REMARK    6  A    between atoms: C8_10  and  C9_11 
REMARK    7  A    between atoms: C9_11  and  O3_13 
REMARK    8  A    between atoms: C9_11  and  C11_14 
REMARK    9  A    between atoms: C12_15  and  C13_16 
REMARK   10  A    between atoms: C14_17  and  C16_19 
REMARK   11  A    between atoms: C17_21  and  C18_22 
REMARK   12  A    between atoms: C18_22  and  C19_23 
REMARK   13  A    between atoms: C19_23  and  O6_25 
REMARK   14  A    between atoms: C24_30  and  O7_32 
ROOT
HETATM    1  C9  UNL     1      -4.307  48.971 -24.357  1.00  0.00     0.075 C 
HETATM    2  C10 UNL     1      -4.989  48.182 -23.234  1.00  0.00     0.050 C 
ENDROOT
BRANCH   1   3
HETATM    3  C8  UNL     1      -2.831  49.316 -24.039  1.00  0.00     0.082 C 
BRANCH   3   4
HETATM    4  C6  UNL     1      -2.330  50.627 -24.614  1.00  0.00     0.087 A 
HETATM    5  C5  UNL     1      -1.481  50.590 -25.882  1.00  0.00     0.163 A 
HETATM    6  O2  UNL     1      -0.892  50.733 -24.586  1.00  0.00    -0.369 OA
HETATM    7  C7  UNL     1      -2.988  51.893 -24.141  1.00  0.00     0.049 C 
BRANCH   5   8
HETATM    8  C3  UNL     1      -1.306  51.775 -26.792  1.00  0.00     0.045 C 
HETATM    9  C4  UNL     1      -2.485  51.825 -27.776  1.00  0.00     0.015 C 
BRANCH   8  10
HETATM   10  C2  UNL     1       0.046  51.727 -27.555  1.00  0.00     0.155 C 
BRANCH  10  11
HETATM   11  O1  UNL     1       0.148  52.943 -28.321  1.00  0.00    -0.388 OA
HETATM   12  C1  UNL     1      -0.320  54.088 -27.621  1.00  0.00     0.202 C 
ENDBRANCH  10  11
BRANCH  10  13
HETATM   13  C24 UNL     1       1.280  51.589 -26.614  1.00  0.00     0.143 C 
HETATM   14  C25 UNL     1       2.610  51.677 -27.357  1.00  0.00     0.042 C 
BRANCH  13  15
HETATM   15  O7  UNL     1       1.302  52.589 -25.593  1.00  0.00    -0.393 OA
HETATM   16  H42 UNL     1       0.572  52.377 -24.981  1.00  0.00     0.210 HD
ENDBRANCH  13  15
ENDBRANCH  10  13
ENDBRANCH   8  10
ENDBRANCH   5   8
ENDBRANCH   3   4
ENDBRANCH   1   3
BRANCH   1  17
HETATM   17  O3  UNL     1      -5.042  50.191 -24.527  1.00  0.00    -0.386 OA
HETATM   18  H18 UNL     1      -5.943  49.942 -24.804  1.00  0.00     0.211 HD
ENDBRANCH   1  17
BRANCH   1  19
HETATM   19  C11 UNL     1      -4.350  48.288 -25.711  1.00  0.00     0.010 C 
HETATM   20  C12 UNL     1      -4.562  48.852 -26.912  1.00  0.00    -0.001 C 
BRANCH  20  21
HETATM   21  C13 UNL     1      -4.610  48.076 -28.135  1.00  0.00     0.005 C 
HETATM   22  C14 UNL     1      -5.710  47.662 -28.798  1.00  0.00    -0.055 C 
HETATM   23  C15 UNL     1      -7.118  48.049 -28.398  1.00  0.00     0.046 C 
BRANCH  22  24
HETATM   24  C16 UNL     1      -5.658  46.805 -30.068  1.00  0.00     0.154 C 
HETATM   25  O4  UNL     1      -6.008  47.647 -31.179  1.00  0.00    -0.375 OA
HETATM   26  C17 UNL     1      -5.742  47.112 -32.481  1.00  0.00     0.132 C 
HETATM   27  C20 UNL     1      -6.422  45.750 -32.667  1.00  0.00     0.033 C 
HETATM   28  C21 UNL     1      -6.202  44.816 -31.480  1.00  0.00     0.009 C 
HETATM   29  C22 UNL     1      -6.505  45.512 -30.141  1.00  0.00     0.015 C 
HETATM   30  C23 UNL     1      -8.018  45.763 -30.015  1.00  0.00     0.012 C 
BRANCH  26  31
HETATM   31  C18 UNL     1      -4.246  47.064 -32.803  1.00  0.00     0.141 C 
BRANCH  31  32
HETATM   32  C19 UNL     1      -3.907  48.069 -33.867  1.00  0.00     0.141 C 
HETATM   33  O5  UNL     1      -4.659  48.523 -34.712  1.00  0.00    -0.650 OA
BRANCH  32  34
HETATM   34  O6  UNL     1      -2.607  48.425 -33.848  1.00  0.00    -0.776 OA
HETATM   35  H29 UNL     1      -2.535  49.077 -34.579  1.00  0.00     0.167 HD
ENDBRANCH  32  34
ENDBRANCH  31  32
ENDBRANCH  26  31
ENDBRANCH  22  24
ENDBRANCH  20  21
ENDBRANCH   1  19
TORSDOF 14
ENDMDL
