MODEL 1
REMARK minimizedAffinity -9.99847889
REMARK CNNscore 0.276371777
REMARK CNNaffinity 6.86041975
REMARK  12 active torsions:
REMARK  status: ('A' for Active; 'I' for Inactive)
REMARK    1  A    between atoms: C3_3  and  O1_4 
REMARK    2  A    between atoms: N1_14  and  O2_16 
REMARK    3  A    between atoms: O2_16  and  C13_17 
REMARK    4  A    between atoms: C13_17  and  C14_18 
REMARK       I    between atoms: C14_18  and  N2_20 
REMARK    5  A    between atoms: N2_20  and  C15_21 
REMARK    6  A    between atoms: C15_21  and  C16_22 
REMARK    7  A    between atoms: C15_21  and  C27_38 
REMARK       I    between atoms: C16_22  and  N3_24 
REMARK    8  A    between atoms: N3_24  and  C17_25 
REMARK    9  A    between atoms: C17_25  and  C18_26 
REMARK   10  A    between atoms: C17_25  and  C20_30 
REMARK   11  A    between atoms: C18_26  and  C19_27 
REMARK   12  A    between atoms: C19_27  and  O6_29 
ROOT
HETATM    1  C1  UNL     1       0.182  55.672 -26.804  1.00  0.00     0.015 C 
HETATM    2  C2  UNL     1      -0.091  54.503 -26.864  1.00  0.00    -0.078 C 
HETATM    3  C3  UNL     1      -0.417  53.070 -26.954  1.00  0.00     0.128 C 
HETATM    4  C4  UNL     1       0.843  52.201 -27.015  1.00  0.00     0.052 C 
HETATM    5  C5  UNL     1       0.291  50.804 -26.754  1.00  0.00     0.010 C 
HETATM    6  C6  UNL     1      -0.689  51.017 -25.597  1.00  0.00     0.002 C 
HETATM    7  C7  UNL     1      -1.743  49.907 -25.371  1.00  0.00    -0.004 C 
HETATM    8  C8  UNL     1      -2.377  49.284 -26.625  1.00  0.00     0.010 C 
HETATM    9  C9  UNL     1      -3.353  48.160 -26.272  1.00  0.00     0.035 C 
HETATM   10  C10 UNL     1      -4.370  48.532 -25.215  1.00  0.00    -0.069 C 
HETATM   11  C11 UNL     1      -5.659  48.185 -25.378  1.00  0.00     0.030 C 
HETATM   12  C12 UNL     1      -6.675  48.403 -24.306  1.00  0.00     0.032 C 
HETATM   13  N1  UNL     1      -7.950  48.172 -24.399  1.00  0.00    -0.271 N 
ATOM     14  H1  UNL     1      -8.616  48.338 -23.644  1.00  0.00     0.194 HD
HETATM   15  C30 UNL     1      -6.168  48.874 -22.958  1.00  0.00     0.060 C 
HETATM   16  C31 UNL     1      -5.010  49.842 -23.130  1.00  0.00     0.020 C 
HETATM   17  C32 UNL     1      -3.841  49.256 -23.977  1.00  0.00    -0.016 C 
HETATM   18  C33 UNL     1      -3.096  48.218 -23.095  1.00  0.00     0.020 C 
HETATM   19  C34 UNL     1      -2.842  50.404 -24.397  1.00  0.00     0.002 C 
HETATM   20  C35 UNL     1      -3.548  51.668 -24.958  1.00  0.00     0.007 C 
HETATM   21  C36 UNL     1      -2.742  52.511 -25.951  1.00  0.00     0.014 C 
HETATM   22  C37 UNL     1      -1.220  52.484 -25.733  1.00  0.00     0.003 C 
HETATM   23  C38 UNL     1      -0.893  53.241 -24.416  1.00  0.00     0.020 C 
ENDROOT
BRANCH   3  24
HETATM   24  O1  UNL     1      -1.128  52.855 -28.180  1.00  0.00    -0.377 OA
HETATM   25  H2  UNL     1      -0.664  53.359 -28.869  1.00  0.00     0.211 HD
ENDBRANCH   3  24
BRANCH  13  26
HETATM   26  O2  UNL     1      -8.304  47.668 -25.661  1.00  0.00    -0.271 OA
BRANCH  26  27
HETATM   27  C13 UNL     1      -9.336  48.476 -26.205  1.00  0.00     0.303 C 
BRANCH  27  28
HETATM   28  C14 UNL     1     -10.500  47.625 -26.713  1.00  0.00     0.244 C 
HETATM   29  O3  UNL     1     -10.387  46.467 -27.106  1.00  0.00    -0.271 OA
HETATM   30  N2  UNL     1     -11.716  48.287 -26.671  1.00  0.00    -0.346 N 
HETATM   31  H16 UNL     1     -11.675  49.301 -26.704  1.00  0.00     0.163 HD
BRANCH  30  32
HETATM   32  C15 UNL     1     -12.923  47.701 -27.246  1.00  0.00     0.180 C 
BRANCH  32  33
HETATM   33  C16 UNL     1     -13.564  46.773 -26.188  1.00  0.00     0.241 C 
HETATM   34  O4  UNL     1     -13.129  45.647 -25.956  1.00  0.00    -0.271 OA
HETATM   35  N3  UNL     1     -14.678  47.301 -25.567  1.00  0.00    -0.354 N 
HETATM   36  H18 UNL     1     -15.010  48.213 -25.859  1.00  0.00     0.162 HD
BRANCH  35  37
HETATM   37  C17 UNL     1     -15.452  46.583 -24.541  1.00  0.00     0.098 C 
BRANCH  37  38
HETATM   38  C18 UNL     1     -15.284  47.340 -23.212  1.00  0.00     0.135 C 
BRANCH  38  39
HETATM   39  C19 UNL     1     -13.971  47.065 -22.531  1.00  0.00     0.141 C 
HETATM   40  O5  UNL     1     -12.858  47.057 -23.023  1.00  0.00    -0.650 OA
BRANCH  39  41
HETATM   41  O6  UNL     1     -14.140  46.814 -21.215  1.00  0.00    -0.776 OA
HETATM   42  H22 UNL     1     -13.228  46.685 -20.878  1.00  0.00     0.167 HD
ENDBRANCH  39  41
ENDBRANCH  38  39
ENDBRANCH  37  38
BRANCH  37  43
HETATM   43  C20 UNL     1     -16.931  46.457 -25.019  1.00  0.00     0.014 C 
HETATM   44  C21 UNL     1     -17.972  46.500 -23.899  1.00  0.00     0.033 C 
HETATM   45  C22 UNL     1     -19.395  46.405 -24.446  1.00  0.00     0.169 C 
HETATM   46  O7  UNL     1     -19.466  45.868 -25.763  1.00  0.00    -0.381 OA
HETATM   47  C23 UNL     1     -18.612  44.747 -26.009  1.00  0.00     0.054 C 
HETATM   48  C24 UNL     1     -18.980  43.558 -25.105  1.00  0.00     0.045 C 
HETATM   49  C25 UNL     1     -18.872  44.336 -27.466  1.00  0.00     0.045 C 
HETATM   50  C26 UNL     1     -17.136  45.165 -25.845  1.00  0.00     0.044 C 
ENDBRANCH  37  43
ENDBRANCH  35  37
ENDBRANCH  32  33
BRANCH  32  51
HETATM   51  C27 UNL     1     -12.637  46.943 -28.563  1.00  0.00     0.009 C 
HETATM   52  C28 UNL     1     -12.252  47.867 -29.722  1.00  0.00     0.012 C 
HETATM   53  C29 UNL     1     -13.838  46.081 -28.967  1.00  0.00     0.012 C 
ENDBRANCH  32  51
ENDBRANCH  30  32
ENDBRANCH  27  28
ENDBRANCH  26  27
ENDBRANCH  13  26
TORSDOF 12
ENDMDL
