MODEL 1
REMARK minimizedAffinity -7.53170919
REMARK CNNscore 0.831230998
REMARK CNNaffinity 6.80708265
REMARK  7 active torsions:
REMARK  status: ('A' for Active; 'I' for Inactive)
REMARK    1  A    between atoms: C2_2  and  C3_3 
REMARK    2  A    between atoms: C2_2  and  C9_11 
REMARK    3  A    between atoms: C3_3  and  C4_4 
REMARK    4  A    between atoms: C4_4  and  C5_5 
REMARK    5  A    between atoms: C5_5  and  O1_6 
REMARK    6  A    between atoms: C5_5  and  C6_7 
REMARK    7  A    between atoms: C6_7  and  O2_10 
ROOT
HETATM    1  C9  UNL     1       5.097  55.979  -8.329  1.00  0.00    -0.001 C 
HETATM    2  C10 UNL     1       5.842  54.942  -9.220  1.00  0.00     0.007 C 
HETATM    3  C11 UNL     1       4.782  54.193 -10.047  1.00  0.00     0.015 C 
HETATM    4  C12 UNL     1       3.489  55.010  -9.871  1.00  0.00    -0.004 C 
HETATM    5  C13 UNL     1       3.533  56.172 -10.911  1.00  0.00     0.021 C 
HETATM    6  C14 UNL     1       2.142  54.344 -10.070  1.00  0.00     0.007 C 
HETATM    7  C15 UNL     1       1.005  54.758  -9.466  1.00  0.00     0.007 C 
HETATM    8  C16 UNL     1       1.141  55.904  -8.468  1.00  0.00     0.157 C 
HETATM    9  O3  UNL     1       0.145  56.405  -7.947  1.00  0.00    -0.293 OA
HETATM   10  C17 UNL     1       2.514  56.452  -8.086  1.00  0.00     0.094 C 
HETATM   11  C18 UNL     1       3.629  55.447  -8.367  1.00  0.00    -0.022 C 
HETATM   12  C19 UNL     1       3.488  54.265  -7.355  1.00  0.00     0.017 C 
HETATM   13  C20 UNL     1      -0.416  54.162  -9.718  1.00  0.00    -0.007 C 
HETATM   14  C21 UNL     1      -1.346  55.332 -10.126  1.00  0.00     0.021 C 
HETATM   15  C22 UNL     1      -0.875  53.497  -8.393  1.00  0.00     0.022 C 
HETATM   16  C23 UNL     1      -2.183  52.737  -8.493  1.00  0.00     0.080 C 
HETATM   17  C24 UNL     1      -2.069  51.665  -9.545  1.00  0.00     0.135 C 
HETATM   18  O4  UNL     1      -2.307  50.490  -9.270  1.00  0.00    -0.297 OA
HETATM   19  C25 UNL     1      -1.696  52.121 -10.959  1.00  0.00     0.018 C 
HETATM   20  C26 UNL     1      -2.938  52.796 -11.580  1.00  0.00     0.023 C 
HETATM   21  C27 UNL     1      -1.431  50.871 -11.836  1.00  0.00     0.023 C 
HETATM   22  C28 UNL     1      -0.429  53.078 -10.890  1.00  0.00     0.021 C 
HETATM   23  C29 UNL     1       0.881  52.271 -10.841  1.00  0.00     0.090 C 
HETATM   24  C30 UNL     1       2.052  53.197 -11.005  1.00  0.00     0.157 C 
HETATM   25  O5  UNL     1       2.907  53.003 -11.861  1.00  0.00    -0.293 OA
ENDROOT
BRANCH   1  26
HETATM   26  C2  UNL     1       5.823  56.205  -6.963  1.00  0.00    -0.014 C 
HETATM   27  C1  UNL     1       7.261  55.657  -7.035  1.00  0.00     0.010 C 
BRANCH  26  28
HETATM   28  C3  UNL     1       5.821  57.696  -6.546  1.00  0.00     0.007 C 
BRANCH  28  29
HETATM   29  C4  UNL     1       6.296  57.987  -5.113  1.00  0.00     0.035 C 
BRANCH  29  30
HETATM   30  C5  UNL     1       5.189  58.382  -4.120  1.00  0.00     0.151 C 
BRANCH  30  31
HETATM   31  O1  UNL     1       3.933  58.360  -4.832  1.00  0.00    -0.393 OA
HETATM   32  H10 UNL     1       3.771  57.440  -5.102  1.00  0.00     0.210 HD
ENDBRANCH  30  31
BRANCH  30  33
HETATM   33  C6  UNL     1       5.299  59.784  -3.451  1.00  0.00     0.076 C 
HETATM   34  C7  UNL     1       4.118  60.700  -3.761  1.00  0.00     0.048 C 
HETATM   35  C8  UNL     1       5.533  59.729  -1.936  1.00  0.00     0.048 C 
BRANCH  33  36
HETATM   36  O2  UNL     1       6.467  60.414  -4.020  1.00  0.00    -0.388 OA
HETATM   37  H17 UNL     1       7.174  59.743  -3.936  1.00  0.00     0.210 HD
ENDBRANCH  33  36
ENDBRANCH  30  33
ENDBRANCH  29  30
ENDBRANCH  28  29
ENDBRANCH  26  28
ENDBRANCH   1  26
TORSDOF 7
ENDMDL
