MODEL 1
REMARK minimizedAffinity -3.90629506
REMARK  0 active torsions:
REMARK  status: ('A' for Active; 'I' for Inactive)
ROOT
HETATM    1 CL1  UNL     1      -1.110  50.867 -24.940  1.00  0.00     0.000 Cl
HETATM    2 RU1  UNL     1       0.422  52.645 -26.037  1.00  0.00     0.000 Ru
HETATM    3 CL2  UNL     1      -0.612  51.514 -27.794  1.00  0.00     0.000 Cl
HETATM    4 CL3  UNL     1      -0.044  52.333 -27.996  1.00  0.00     0.000 Cl
HETATM    5 CL4  UNL     1       2.211  51.578 -26.312  1.00  0.00     0.000 Cl
HETATM    6 CL5  UNL     1       2.859  51.589 -27.171  1.00  0.00     0.000 Cl
HETATM    7 CL6  UNL     1       0.705  53.494 -24.035  1.00  0.00     0.000 Cl
ENDROOT
TORSDOF 0
ENDMDL
