MODEL 1
REMARK minimizedAffinity -8.48754978
REMARK  13 active torsions:
REMARK  status: ('A' for Active; 'I' for Inactive)
REMARK    1  A    between atoms: C2_2  and  C3_3 
REMARK    2  A    between atoms: C3_3  and  C5_5 
REMARK    3  A    between atoms: C3_3  and  O3_18 
REMARK    4  A    between atoms: C5_5  and  C6_6 
REMARK    5  A    between atoms: C7_7  and  C8_8 
REMARK    6  A    between atoms: C12_12  and  C13_13 
REMARK    7  A    between atoms: C13_13  and  O1_16 
REMARK    8  A    between atoms: O3_18  and  C16_19 
REMARK    9  A    between atoms: C17_21  and  C18_22 
REMARK   10  A    between atoms: C18_22  and  O5_23 
REMARK   11  A    between atoms: C19_24  and  O6_25 
REMARK   12  A    between atoms: C20_26  and  O7_27 
REMARK   13  A    between atoms: C21_28  and  O8_29 
ROOT
HETATM    1  C3  UNL     1      -4.323   3.447  11.622  1.00  0.00     0.081 C 
HETATM    2  C4  UNL     1      -3.680   3.678  10.241  1.00  0.00     0.051 C 
ENDROOT
BRANCH   1   3
HETATM    3  C2  UNL     1      -4.707   1.975  11.724  1.00  0.00     0.001 C 
HETATM    4  C1  UNL     1      -5.771   1.344  11.203  1.00  0.00     0.010 C 
ENDBRANCH   1   3
BRANCH   1   5
HETATM    5  C5  UNL     1      -3.414   3.976  12.781  1.00  0.00     0.068 C 
BRANCH   5   6
HETATM    6  C6  UNL     1      -2.260   4.927  12.547  1.00  0.00    -0.024 C 
HETATM    7  C7  UNL     1      -0.972   4.651  12.275  1.00  0.00     0.006 C 
BRANCH   7   8
HETATM    8  C8  UNL     1       0.119   5.665  12.007  1.00  0.00     0.075 C 
HETATM    9  C9  UNL     1       0.961   5.858  13.274  1.00  0.00     0.050 C 
HETATM   10  C10 UNL     1      -0.465   6.984  11.498  1.00  0.00     0.044 C 
HETATM   11  C11 UNL     1       0.632   7.503  10.596  1.00  0.00     0.038 C 
HETATM   12  C12 UNL     1       1.142   6.217   9.959  1.00  0.00     0.156 C 
HETATM   13  O2  UNL     1       1.010   5.203  10.976  1.00  0.00    -0.368 OA
BRANCH  12  14
HETATM   14  C13 UNL     1       2.589   6.269   9.401  1.00  0.00     0.076 C 
HETATM   15  C14 UNL     1       3.618   6.026  10.510  1.00  0.00     0.048 C 
HETATM   16  C15 UNL     1       2.861   7.623   8.735  1.00  0.00     0.048 C 
BRANCH  14  17
HETATM   17  O1  UNL     1       2.792   5.274   8.386  1.00  0.00    -0.388 OA
HETATM   18  H25 UNL     1       2.778   4.396   8.800  1.00  0.00     0.210 HD
ENDBRANCH  14  17
ENDBRANCH  12  14
ENDBRANCH   7   8
ENDBRANCH   5   6
ENDBRANCH   1   5
BRANCH   1  19
HETATM   19  O3  UNL     1      -5.617   4.088  11.716  1.00  0.00    -0.344 OA
BRANCH  19  20
HETATM   20  C16 UNL     1      -6.074   4.491  13.011  1.00  0.00     0.293 C 
HETATM   21  O4  UNL     1      -6.023   5.917  13.075  1.00  0.00    -0.348 OA
HETATM   22  C17 UNL     1      -6.726   6.482  14.194  1.00  0.00     0.179 C 
HETATM   23  C19 UNL     1      -8.243   6.271  14.006  1.00  0.00     0.180 C 
HETATM   24  C20 UNL     1      -8.547   5.104  13.041  1.00  0.00     0.183 C 
HETATM   25  C21 UNL     1      -7.527   3.961  13.164  1.00  0.00     0.204 C 
BRANCH  22  26
HETATM   26  C18 UNL     1      -6.167   6.041  15.560  1.00  0.00     0.198 C 
BRANCH  26  27
HETATM   27  O5  UNL     1      -6.571   6.969  16.570  1.00  0.00    -0.398 OA
HETATM   28  H30 UNL     1      -6.127   6.702  17.394  1.00  0.00     0.209 HD
ENDBRANCH  26  27
ENDBRANCH  22  26
BRANCH  23  29
HETATM   29  O6  UNL     1      -8.914   6.098  15.255  1.00  0.00    -0.390 OA
HETATM   30  H32 UNL     1      -9.870   6.143  15.076  1.00  0.00     0.210 HD
ENDBRANCH  23  29
BRANCH  24  31
HETATM   31  O7  UNL     1      -8.596   5.586  11.693  1.00  0.00    -0.390 OA
HETATM   32  H34 UNL     1      -7.688   5.861  11.449  1.00  0.00     0.210 HD
ENDBRANCH  24  31
BRANCH  25  33
HETATM   33  O8  UNL     1      -7.677   3.298  14.430  1.00  0.00    -0.388 OA
HETATM   34  H36 UNL     1      -8.571   2.913  14.451  1.00  0.00     0.210 HD
ENDBRANCH  25  33
ENDBRANCH  19  20
ENDBRANCH   1  19
TORSDOF 13
ENDMDL
