MODEL 1
REMARK minimizedAffinity -9.31551743
REMARK  9 active torsions:
REMARK  status: ('A' for Active; 'I' for Inactive)
REMARK    1  A    between atoms: C3_3  and  O1_4 
REMARK    2  A    between atoms: N1_14  and  O2_16 
REMARK    3  A    between atoms: O2_16  and  C13_17 
REMARK    4  A    between atoms: C13_17  and  C14_18 
REMARK       I    between atoms: C14_18  and  N2_20 
REMARK    5  A    between atoms: N2_20  and  C15_21 
REMARK    6  A    between atoms: C15_21  and  C16_22 
REMARK    7  A    between atoms: C15_21  and  C17_25 
REMARK    8  A    between atoms: C16_22  and  O5_24 
REMARK    9  A    between atoms: C17_25  and  C19_27 
ROOT
HETATM    1  C1  UNL     1      -5.187  50.191 -10.451  1.00  0.00     0.015 C 
HETATM    2  C2  UNL     1      -4.285  50.797 -10.962  1.00  0.00    -0.078 C 
HETATM    3  C3  UNL     1      -3.196  51.560 -11.589  1.00  0.00     0.128 C 
HETATM    4  C4  UNL     1      -2.078  51.913 -10.572  1.00  0.00     0.052 C 
HETATM    5  C5  UNL     1      -0.749  51.885 -11.359  1.00  0.00     0.010 C 
HETATM    6  C6  UNL     1      -1.161  51.678 -12.814  1.00  0.00     0.002 C 
HETATM    7  C7  UNL     1      -0.126  51.129 -13.802  1.00  0.00    -0.004 C 
HETATM    8  C8  UNL     1       1.154  51.988 -13.823  1.00  0.00     0.010 C 
HETATM    9  C9  UNL     1       2.141  51.546 -14.905  1.00  0.00     0.035 C 
HETATM   10  C10 UNL     1       1.425  51.492 -16.232  1.00  0.00    -0.069 C 
HETATM   11  C11 UNL     1       1.751  52.362 -17.205  1.00  0.00     0.030 C 
HETATM   12  C12 UNL     1       0.885  52.549 -18.397  1.00  0.00     0.032 C 
HETATM   13  N1  UNL     1       1.304  53.352 -19.333  1.00  0.00    -0.271 N 
ATOM     14  H1  UNL     1       2.200  53.840 -19.310  1.00  0.00     0.194 HD
HETATM   15  C21 UNL     1      -0.465  51.860 -18.393  1.00  0.00     0.060 C 
HETATM   16  C22 UNL     1      -0.337  50.491 -17.744  1.00  0.00     0.020 C 
HETATM   17  C23 UNL     1       0.237  50.526 -16.301  1.00  0.00    -0.016 C 
HETATM   18  C24 UNL     1       0.694  49.074 -16.010  1.00  0.00     0.020 C 
HETATM   19  C25 UNL     1      -0.785  51.044 -15.226  1.00  0.00     0.002 C 
HETATM   20  C26 UNL     1      -2.131  50.277 -15.193  1.00  0.00     0.007 C 
HETATM   21  C27 UNL     1      -3.093  50.779 -14.100  1.00  0.00     0.014 C 
HETATM   22  C28 UNL     1      -2.430  50.796 -12.711  1.00  0.00     0.003 C 
HETATM   23  C29 UNL     1      -2.122  49.336 -12.271  1.00  0.00     0.020 C 
ENDROOT
BRANCH   3  24
HETATM   24  O1  UNL     1      -3.770  52.766 -12.099  1.00  0.00    -0.377 OA
HETATM   25  H2  UNL     1      -3.096  53.464 -12.088  1.00  0.00     0.211 HD
ENDBRANCH   3  24
BRANCH  13  26
HETATM   26  O2  UNL     1       0.377  53.464 -20.377  1.00  0.00    -0.271 OA
BRANCH  26  27
HETATM   27  C13 UNL     1       1.074  53.699 -21.599  1.00  0.00     0.303 C 
BRANCH  27  28
HETATM   28  C14 UNL     1       0.554  52.764 -22.687  1.00  0.00     0.244 C 
HETATM   29  O3  UNL     1       0.365  51.569 -22.484  1.00  0.00    -0.271 OA
HETATM   30  N2  UNL     1       0.281  53.398 -23.885  1.00  0.00    -0.344 N 
HETATM   31  H16 UNL     1       0.342  54.410 -23.864  1.00  0.00     0.163 HD
BRANCH  30  32
HETATM   32  C15 UNL     1      -0.430  52.782 -25.008  1.00  0.00     0.186 C 
BRANCH  32  33
HETATM   33  C16 UNL     1      -1.922  52.703 -24.635  1.00  0.00     0.163 C 
HETATM   34  O4  UNL     1      -2.417  52.533 -23.532  1.00  0.00    -0.648 OA
BRANCH  33  35
HETATM   35  O5  UNL     1      -2.733  52.893 -25.701  1.00  0.00    -0.775 OA
HETATM   36  H18 UNL     1      -3.632  52.813 -25.315  1.00  0.00     0.167 HD
ENDBRANCH  33  35
ENDBRANCH  32  33
BRANCH  32  37
HETATM   37  C17 UNL     1       0.178  51.460 -25.548  1.00  0.00     0.014 C 
HETATM   38  C18 UNL     1      -0.912  50.427 -25.884  1.00  0.00     0.012 C 
BRANCH  37  39
HETATM   39  C19 UNL     1       1.028  51.670 -26.827  1.00  0.00     0.002 C 
HETATM   40  C20 UNL     1       2.525  51.470 -26.655  1.00  0.00     0.005 C 
ENDBRANCH  37  39
ENDBRANCH  32  37
ENDBRANCH  30  32
ENDBRANCH  27  28
ENDBRANCH  26  27
ENDBRANCH  13  26
TORSDOF 9
ENDMDL
