MODEL 1
REMARK minimizedAffinity -8.55830383
REMARK CNNscore 0.399950355
REMARK CNNaffinity 6.31874466
REMARK  9 active torsions:
REMARK  status: ('A' for Active; 'I' for Inactive)
REMARK    1  A    between atoms: C7_8  and  O1_9 
REMARK    2  A    between atoms: O1_9  and  C8_10 
REMARK    3  A    between atoms: C8_10  and  C9_11 
REMARK       I    between atoms: C9_11  and  N1_13 
REMARK    4  A    between atoms: N1_13  and  N2_14 
REMARK    5  A    between atoms: C10_16  and  C11_17 
REMARK    6  A    between atoms: C14_20  and  O3_21 
REMARK    7  A    between atoms: C16_23  and  O4_24 
REMARK    8  A    between atoms: C25_33  and  C26_34 
REMARK    9  A    between atoms: C32_42  and  O7_43 
ROOT
HETATM    1  C11 UNL     1      -1.292  53.553 -10.054  1.00  0.00     0.028 C 
HETATM    2  C12 UNL     1      -2.263  54.720 -10.398  1.00  0.00     0.021 C 
HETATM    3  C13 UNL     1      -3.738  54.291 -10.361  1.00  0.00     0.033 C 
HETATM    4  C14 UNL     1      -4.041  53.040 -11.181  1.00  0.00     0.121 C 
HETATM    5  C15 UNL     1      -3.048  51.897 -10.930  1.00  0.00     0.070 C 
HETATM    6  C16 UNL     1      -1.584  52.379 -11.052  1.00  0.00     0.073 C 
HETATM    7  C17 UNL     1      -0.594  51.211 -10.937  1.00  0.00     0.039 C 
HETATM    8  C18 UNL     1       0.862  51.675 -11.013  1.00  0.00     0.011 C 
HETATM    9  C19 UNL     1       1.187  52.791 -10.004  1.00  0.00     0.026 C 
HETATM   10  C20 UNL     1       0.209  54.004 -10.171  1.00  0.00     0.009 C 
HETATM   11  C21 UNL     1       0.593  55.200  -9.255  1.00  0.00     0.007 C 
HETATM   12  C22 UNL     1       2.081  55.583  -9.322  1.00  0.00     0.013 C 
HETATM   13  C23 UNL     1       2.992  54.370  -9.078  1.00  0.00    -0.005 C 
HETATM   14  C24 UNL     1       2.826  53.902  -7.608  1.00  0.00     0.019 C 
HETATM   15  C25 UNL     1       4.505  54.585  -9.400  1.00  0.00     0.028 C 
HETATM   16  C30 UNL     1       5.012  53.132  -9.658  1.00  0.00     0.013 C 
HETATM   17  C31 UNL     1       3.771  52.270  -9.971  1.00  0.00     0.040 C 
HETATM   18  C32 UNL     1       2.641  53.283 -10.133  1.00  0.00     0.070 C 
ENDROOT
BRANCH   1  19
HETATM   19  C10 UNL     1      -1.578  53.192  -8.583  1.00  0.00     0.093 C 
HETATM   20  N2  UNL     1      -0.955  53.738  -7.588  1.00  0.00    -0.312 N 
ATOM     21  H2  UNL     1      -0.282  54.490  -7.736  1.00  0.00     0.185 HD
BRANCH  20  22
HETATM   22  N1  UNL     1      -1.232  53.271  -6.329  1.00  0.00    -0.269 N 
HETATM   23  C9  UNL     1      -1.266  54.094  -5.198  1.00  0.00     0.260 C 
HETATM   24  O2  UNL     1      -0.885  55.263  -5.169  1.00  0.00    -0.269 OA
HETATM   25  H9  UNL     1      -1.854  52.470  -6.335  1.00  0.00     0.190 HD
BRANCH  23  26
HETATM   26  C8  UNL     1      -1.853  53.374  -3.978  1.00  0.00     0.280 C 
BRANCH  26  27
HETATM   27  O1  UNL     1      -2.116  54.201  -2.857  1.00  0.00    -0.342 OA
BRANCH  27  28
HETATM   28  C7  UNL     1      -3.385  54.685  -2.685  1.00  0.00     0.075 A 
HETATM   29  C2  UNL     1      -3.487  56.082  -2.519  1.00  0.00    -0.027 A 
HETATM   30  C1  UNL     1      -2.261  56.950  -2.514  1.00  0.00     0.051 C 
HETATM   31  C3  UNL     1      -4.749  56.665  -2.330  1.00  0.00     0.033 A 
HETATM   32  C4  UNL     1      -5.893  55.874  -2.325  1.00  0.00     0.034 A 
HETATM   33 CL1  UNL     1      -7.433  56.600  -2.099  1.00  0.00    -0.084 Cl
HETATM   34  C5  UNL     1      -5.796  54.498  -2.510  1.00  0.00     0.026 A 
HETATM   35  C6  UNL     1      -4.544  53.904  -2.699  1.00  0.00     0.039 A 
ENDBRANCH  27  28
ENDBRANCH  26  27
ENDBRANCH  23  26
ENDBRANCH  20  22
ENDBRANCH   1  19
BRANCH   6  36
HETATM   36  O4  UNL     1      -1.477  52.846 -12.422  1.00  0.00    -0.389 OA
HETATM   37  H19 UNL     1      -0.631  53.331 -12.543  1.00  0.00     0.210 HD
ENDBRANCH   6  36
BRANCH   4  38
HETATM   38  O3  UNL     1      -4.055  53.396 -12.562  1.00  0.00    -0.395 OA
HETATM   39  H16 UNL     1      -3.145  53.248 -12.900  1.00  0.00     0.210 HD
ENDBRANCH   4  38
BRANCH  18  40
HETATM   40  O7  UNL     1       2.783  53.856 -11.453  1.00  0.00    -0.389 OA
HETATM   41  H41 UNL     1       2.920  53.138 -12.096  1.00  0.00     0.210 HD
ENDBRANCH  18  40
BRANCH  15  42
HETATM   42  C26 UNL     1       5.319  55.402  -8.435  1.00  0.00    -0.045 A 
HETATM   43  C27 UNL     1       4.965  56.473  -7.725  1.00  0.00     0.087 A 
HETATM   44  C28 UNL     1       6.110  56.850  -6.900  1.00  0.00     0.283 A 
HETATM   45  O5  UNL     1       6.145  57.813  -6.161  1.00  0.00    -0.260 OA
HETATM   46  O6  UNL     1       7.117  55.968  -7.109  1.00  0.00    -0.314 OA
HETATM   47  C29 UNL     1       6.709  55.014  -8.086  1.00  0.00     0.213 A 
ENDBRANCH  15  42
TORSDOF 9
ENDMDL
