MODEL 1
REMARK minimizedAffinity -8.72055912
REMARK  7 active torsions:
REMARK  status: ('A' for Active; 'I' for Inactive)
REMARK    1  A    between atoms: C3_4  and  O2_5 
REMARK    2  A    between atoms: O2_5  and  C4_6 
REMARK    3  A    between atoms: C4_6  and  C5_7 
REMARK    4  A    between atoms: N1_15  and  C13_16 
REMARK    5  A    between atoms: N3_24  and  C19_25 
REMARK    6  A    between atoms: C19_25  and  C20_26 
REMARK    7  A    between atoms: C20_26  and  N4_27 
ROOT
HETATM    1  C13 UNL     1       0.106  51.799 -18.707  1.00  0.00     0.043 A 
HETATM    2  C14 UNL     1      -0.454  50.896 -19.624  1.00  0.00     0.032 A 
HETATM    3  C15 UNL     1      -0.394  51.090 -21.014  1.00  0.00     0.034 A 
HETATM    4  C16 UNL     1       0.255  52.238 -21.477  1.00  0.00     0.062 A 
HETATM    5  C17 UNL     1       0.829  53.159 -20.610  1.00  0.00     0.011 A 
HETATM    6  C18 UNL     1       1.389  54.144 -21.453  1.00  0.00     0.121 A 
HETATM    7  N2  UNL     1       1.192  53.888 -22.749  1.00  0.00    -0.308 N 
ATOM      8  H2  UNL     1       1.497  54.433 -23.554  1.00  0.00     0.186 HD
HETATM    9  N3  UNL     1       0.492  52.732 -22.738  1.00  0.00    -0.290 N 
HETATM   10  C25 UNL     1       0.754  52.944 -19.219  1.00  0.00     0.045 A 
ENDROOT
BRANCH   1  11
HETATM   11  N1  UNL     1       0.013  51.586 -17.275  1.00  0.00    -0.290 N 
HETATM   12  C1  UNL     1       1.056  52.027 -16.426  1.00  0.00     0.254 A 
HETATM   13  O1  UNL     1       2.080  52.625 -16.756  1.00  0.00    -0.268 OA
HETATM   14  C2  UNL     1       0.887  51.769 -14.968  1.00  0.00     0.111 A 
HETATM   15  C3  UNL     1      -0.197  51.136 -14.513  1.00  0.00     0.075 A 
HETATM   16  C11 UNL     1      -1.240  50.736 -15.413  1.00  0.00     0.054 A 
HETATM   17  C12 UNL     1      -1.109  50.958 -16.724  1.00  0.00     0.103 A 
BRANCH  15  18
HETATM   18  O2  UNL     1      -0.422  50.914 -13.176  1.00  0.00    -0.346 OA
BRANCH  18  19
HETATM   19  C4  UNL     1      -0.129  52.068 -12.373  1.00  0.00     0.214 C 
BRANCH  19  20
HETATM   20  C5  UNL     1      -1.393  52.686 -11.823  1.00  0.00    -0.034 A 
HETATM   21  C6  UNL     1      -1.324  53.694 -10.850  1.00  0.00     0.009 A 
HETATM   22  C7  UNL     1      -2.490  54.269 -10.342  1.00  0.00     0.001 A 
HETATM   23  C8  UNL     1      -3.734  53.841 -10.801  1.00  0.00     0.000 A 
HETATM   24  C9  UNL     1      -3.815  52.839 -11.767  1.00  0.00     0.001 A 
HETATM   25  C10 UNL     1      -2.650  52.263 -12.277  1.00  0.00     0.009 A 
ENDBRANCH  19  20
ENDBRANCH  18  19
ENDBRANCH  15  18
ENDBRANCH   1  11
BRANCH   9  26
HETATM   26  C19 UNL     1       0.074  52.147 -24.000  1.00  0.00     0.179 C 
BRANCH  26  27
HETATM   27  C20 UNL     1       1.044  52.507 -25.130  1.00  0.00     0.294 C 
BRANCH  27  28
HETATM   28  N4  UNL     1       1.347  51.351 -26.002  1.00  0.00     0.090 N 
HETATM   29  C21 UNL     1       0.130  50.696 -26.512  1.00  0.00     0.272 C 
HETATM   30  C22 UNL     1      -0.292  51.483 -27.746  1.00  0.00     0.032 C 
HETATM   31  C23 UNL     1       0.961  52.218 -28.197  1.00  0.00     0.032 C 
HETATM   32  C24 UNL     1       2.046  51.780 -27.226  1.00  0.00     0.272 C 
ENDBRANCH  27  28
ENDBRANCH  26  27
ENDBRANCH   9  26
TORSDOF 7
ENDMDL
