MODEL 1
REMARK minimizedAffinity -7.14085007
REMARK CNNscore 0.804514289
REMARK CNNaffinity 7.82423401
REMARK  10 active torsions:
REMARK  status: ('A' for Active; 'I' for Inactive)
REMARK    1  A    between atoms: O1_2  and  C2_3 
REMARK    2  A    between atoms: C2_3  and  C3_4 
REMARK    3  A    between atoms: C2_3  and  C26_35 
REMARK    4  A    between atoms: C3_4  and  C4_5 
REMARK    5  A    between atoms: C4_5  and  C5_6 
REMARK    6  A    between atoms: C5_6  and  C7_8 
REMARK    7  A    between atoms: C13_17  and  C14_18 
REMARK    8  A    between atoms: C14_18  and  O5_19 
REMARK    9  A    between atoms: C17_24  and  O8_25 
REMARK   10  A    between atoms: C30_39  and  O10_40 
ROOT
HETATM    1  C7  UNL     1       1.293  53.102  -9.603  1.00  0.00     0.135 C 
HETATM    2  O2  UNL     1       1.880  54.397  -9.364  1.00  0.00    -0.348 OA
HETATM    3  C8  UNL     1       3.008  54.467  -8.481  1.00  0.00     0.177 C 
HETATM    4  C9  UNL     1       2.496  53.997  -7.114  1.00  0.00     0.102 C 
HETATM    5  C10 UNL     1       1.869  52.606  -7.178  1.00  0.00     0.143 C 
HETATM    6  O3  UNL     1       2.841  51.565  -7.409  1.00  0.00    -0.315 OA
HETATM    7  C11 UNL     1       3.465  51.066  -6.308  1.00  0.00     0.261 C 
HETATM    8  O4  UNL     1       3.320  51.513  -5.175  1.00  0.00    -0.265 OA
HETATM    9  C12 UNL     1       4.300  49.841  -6.601  1.00  0.00     0.145 C 
HETATM   10  C13 UNL     1       4.819  49.742  -8.038  1.00  0.00     0.164 C 
HETATM   11  O6  UNL     1       5.747  50.822  -8.233  1.00  0.00    -0.313 OA
HETATM   12  C15 UNL     1       5.671  51.461  -9.432  1.00  0.00     0.264 C 
HETATM   13  O7  UNL     1       5.211  50.980 -10.459  1.00  0.00    -0.265 OA
HETATM   14  C16 UNL     1       6.255  52.847  -9.322  1.00  0.00     0.179 C 
HETATM   15  C17 UNL     1       5.368  53.745  -8.443  1.00  0.00     0.177 C 
HETATM   16  O9  UNL     1       4.056  53.652  -8.998  1.00  0.00    -0.318 OA
HETATM   17  C18 UNL     1       5.889  55.203  -8.461  1.00  0.00     0.045 C 
HETATM   18  C19 UNL     1       7.236  55.413  -7.762  1.00  0.00     0.015 C 
HETATM   19  C20 UNL     1       4.841  56.142  -7.839  1.00  0.00     0.024 C 
HETATM   20  C21 UNL     1       3.464  55.978  -8.523  1.00  0.00     0.010 C 
HETATM   21  C22 UNL     1       2.461  56.925  -7.832  1.00  0.00     0.020 C 
HETATM   22  C23 UNL     1       3.586  56.457 -10.001  1.00  0.00     0.020 C 
HETATM   23  C24 UNL     1       0.772  52.520  -8.265  1.00  0.00     0.041 C 
HETATM   24  C25 UNL     1       0.285  51.064  -8.325  1.00  0.00     0.015 C 
ENDROOT
BRANCH   1  25
HETATM   25  C5  UNL     1       0.210  53.430 -10.682  1.00  0.00     0.011 C 
HETATM   26  C6  UNL     1      -0.334  54.854 -10.483  1.00  0.00     0.012 C 
BRANCH  25  27
HETATM   27  C4  UNL     1       0.530  53.187 -12.171  1.00  0.00     0.009 C 
BRANCH  27  28
HETATM   28  C3  UNL     1      -0.131  51.989 -12.867  1.00  0.00     0.037 C 
BRANCH  28  29
HETATM   29  C2  UNL     1       0.811  50.902 -13.426  1.00  0.00     0.153 C 
BRANCH  29  30
HETATM   30  O1  UNL     1       1.592  50.349 -12.357  1.00  0.00    -0.386 OA
HETATM   31  C1  UNL     1       1.432  48.942 -12.227  1.00  0.00     0.202 C 
ENDBRANCH  29  30
BRANCH  29  32
HETATM   32  C26 UNL     1       1.709  51.509 -14.500  1.00  0.00    -0.027 A 
HETATM   33  C27 UNL     1       3.104  51.519 -14.329  1.00  0.00     0.010 A 
HETATM   34  C28 UNL     1       3.937  52.029 -15.329  1.00  0.00     0.003 A 
HETATM   35  C29 UNL     1       3.388  52.536 -16.506  1.00  0.00     0.036 A 
HETATM   36  C30 UNL     1       2.009  52.532 -16.677  1.00  0.00     0.066 A 
HETATM   37  C31 UNL     1       1.167  52.018 -15.695  1.00  0.00     0.046 A 
BRANCH  36  38
HETATM   38  O10 UNL     1       1.516  53.047 -17.837  1.00  0.00    -0.361 OA
HETATM   39  H45 UNL     1       0.547  53.073 -17.773  1.00  0.00     0.217 HD
ENDBRANCH  36  38
ENDBRANCH  29  32
ENDBRANCH  28  29
ENDBRANCH  27  28
ENDBRANCH  25  27
ENDBRANCH   1  25
BRANCH  15  40
HETATM   40  O8  UNL     1       5.425  53.219  -7.125  1.00  0.00    -0.364 OA
HETATM   41  H25 UNL     1       5.469  53.921  -6.462  1.00  0.00     0.213 HD
ENDBRANCH  15  40
BRANCH  10  42
HETATM   42  C14 UNL     1       5.552  48.419  -8.261  1.00  0.00     0.197 C 
BRANCH  42  43
HETATM   43  O5  UNL     1       6.665  48.607  -9.128  1.00  0.00    -0.398 OA
HETATM   44  H22 UNL     1       6.867  47.749  -9.534  1.00  0.00     0.209 HD
ENDBRANCH  42  43
ENDBRANCH  10  42
TORSDOF 10
ENDMDL
