MODEL 1
REMARK minimizedAffinity -7.24160576
REMARK CNNscore 0.913558722
REMARK CNNaffinity 7.18371344
REMARK  10 active torsions:
REMARK  status: ('A' for Active; 'I' for Inactive)
REMARK    1  A    between atoms: C2_2  and  C3_3 
REMARK    2  A    between atoms: C2_2  and  C9_11 
REMARK    3  A    between atoms: C3_3  and  C4_4 
REMARK    4  A    between atoms: C4_4  and  C5_5 
REMARK    5  A    between atoms: C5_5  and  O1_6 
REMARK    6  A    between atoms: C5_5  and  C6_7 
REMARK    7  A    between atoms: C6_7  and  O2_10 
REMARK    8  A    between atoms: C12_14  and  C13_15 
REMARK    9  A    between atoms: C13_15  and  O4_17 
REMARK   10  A    between atoms: C21_25  and  O5_26 
ROOT
HETATM    1  C9  UNL     1       3.698  55.506  -7.568  1.00  0.00    -0.001 C 
HETATM    2  C10 UNL     1       2.672  56.569  -7.090  1.00  0.00     0.007 C 
HETATM    3  C11 UNL     1       1.404  56.391  -7.965  1.00  0.00     0.022 C 
HETATM    4  C12 UNL     1       1.612  55.039  -8.682  1.00  0.00     0.057 C 
HETATM    5  C14 UNL     1       0.837  54.788 -10.006  1.00  0.00     0.010 C 
HETATM    6  C15 UNL     1      -0.693  54.903  -9.892  1.00  0.00     0.010 C 
HETATM    7  C16 UNL     1      -1.460  53.587  -9.744  1.00  0.00     0.036 C 
HETATM    8  C17 UNL     1      -1.710  52.815 -11.034  1.00  0.00    -0.067 C 
HETATM    9  C18 UNL     1      -0.805  52.728 -12.042  1.00  0.00    -0.076 C 
HETATM   10  C19 UNL     1      -1.124  52.068 -13.375  1.00  0.00     0.037 C 
HETATM   11  C20 UNL     1      -2.585  51.698 -13.589  1.00  0.00     0.037 C 
HETATM   12  C21 UNL     1      -3.194  51.131 -12.317  1.00  0.00     0.130 C 
HETATM   13  C22 UNL     1      -3.113  52.148 -11.133  1.00  0.00     0.002 C 
HETATM   14  C23 UNL     1      -3.470  51.386  -9.833  1.00  0.00     0.022 C 
HETATM   15  C24 UNL     1      -4.173  53.252 -11.363  1.00  0.00     0.022 C 
HETATM   16  C25 UNL     1       0.639  53.218 -12.018  1.00  0.00     0.039 C 
HETATM   17  C26 UNL     1       1.314  53.457 -10.653  1.00  0.00    -0.005 C 
HETATM   18  C27 UNL     1       2.856  53.399 -10.822  1.00  0.00     0.006 C 
HETATM   19  C28 UNL     1       3.665  53.800  -9.576  1.00  0.00     0.011 C 
HETATM   20  C29 UNL     1       3.163  55.125  -8.980  1.00  0.00    -0.022 C 
HETATM   21  C30 UNL     1       3.554  56.242 -10.000  1.00  0.00     0.017 C 
ENDROOT
BRANCH   1  22
HETATM   22  C2  UNL     1       5.211  55.847  -7.413  1.00  0.00    -0.014 C 
HETATM   23  C1  UNL     1       5.357  57.350  -7.119  1.00  0.00     0.010 C 
BRANCH  22  24
HETATM   24  C3  UNL     1       6.108  55.459  -8.612  1.00  0.00     0.007 C 
BRANCH  24  25
HETATM   25  C4  UNL     1       7.078  54.293  -8.320  1.00  0.00     0.035 C 
BRANCH  25  26
HETATM   26  C5  UNL     1       6.492  53.241  -7.358  1.00  0.00     0.151 C 
BRANCH  26  27
HETATM   27  O1  UNL     1       7.215  53.313  -6.116  1.00  0.00    -0.393 OA
HETATM   28  H10 UNL     1       8.160  53.265  -6.347  1.00  0.00     0.210 HD
ENDBRANCH  26  27
BRANCH  26  29
HETATM   29  C6  UNL     1       6.563  51.777  -7.881  1.00  0.00     0.076 C 
HETATM   30  C7  UNL     1       7.634  50.946  -7.172  1.00  0.00     0.048 C 
HETATM   31  C8  UNL     1       6.827  51.757  -9.394  1.00  0.00     0.048 C 
BRANCH  29  32
HETATM   32  O2  UNL     1       5.299  51.136  -7.644  1.00  0.00    -0.388 OA
HETATM   33  H17 UNL     1       4.687  51.449  -8.334  1.00  0.00     0.210 HD
ENDBRANCH  29  32
ENDBRANCH  26  29
ENDBRANCH  25  26
ENDBRANCH  24  25
ENDBRANCH  22  24
ENDBRANCH   1  22
BRANCH   4  34
HETATM   34  C13 UNL     1       1.219  53.921  -7.674  1.00  0.00     0.149 C 
HETATM   35  O3  UNL     1       1.602  52.763  -7.650  1.00  0.00    -0.649 OA
BRANCH  34  36
HETATM   36  O4  UNL     1       0.304  54.306  -6.759  1.00  0.00    -0.776 OA
HETATM   37  H23 UNL     1       0.158  53.497  -6.226  1.00  0.00     0.167 HD
ENDBRANCH  34  36
ENDBRANCH   4  34
BRANCH  12  38
HETATM   38  O5  UNL     1      -2.542  49.894 -12.002  1.00  0.00    -0.394 OA
HETATM   39  H34 UNL     1      -1.648  50.111 -11.680  1.00  0.00     0.210 HD
ENDBRANCH  12  38
TORSDOF 10
ENDMDL
