MODEL 1
REMARK minimizedAffinity -9.68573093
REMARK  7 active torsions:
REMARK  status: ('A' for Active; 'I' for Inactive)
REMARK    1  A    between atoms: C2_2  and  C3_3 
REMARK    2  A    between atoms: C2_2  and  C9_11 
REMARK    3  A    between atoms: C3_3  and  C4_4 
REMARK    4  A    between atoms: C4_4  and  C5_5 
REMARK    5  A    between atoms: C5_5  and  O1_6 
REMARK    6  A    between atoms: C5_5  and  C6_7 
REMARK    7  A    between atoms: C6_7  and  O2_10 
ROOT
HETATM    1  C9  UNL     1      -5.435  49.181 -22.131  1.00  0.00    -0.001 C 
HETATM    2  C10 UNL     1      -5.804  48.340 -23.389  1.00  0.00     0.007 C 
HETATM    3  C11 UNL     1      -4.661  48.499 -24.406  1.00  0.00     0.015 C 
HETATM    4  C12 UNL     1      -3.513  49.155 -23.618  1.00  0.00    -0.004 C 
HETATM    5  C13 UNL     1      -2.748  48.011 -22.883  1.00  0.00     0.021 C 
HETATM    6  C14 UNL     1      -2.447  49.944 -24.352  1.00  0.00     0.007 C 
HETATM    7  C15 UNL     1      -1.740  50.950 -23.790  1.00  0.00     0.007 C 
HETATM    8  C16 UNL     1      -2.127  51.344 -22.367  1.00  0.00     0.157 C 
HETATM    9  O3  UNL     1      -1.473  52.182 -21.748  1.00  0.00    -0.293 OA
HETATM   10  C17 UNL     1      -3.336  50.714 -21.681  1.00  0.00     0.094 C 
HETATM   11  C18 UNL     1      -4.324  50.129 -22.688  1.00  0.00    -0.022 C 
HETATM   12  C19 UNL     1      -4.999  51.311 -23.455  1.00  0.00     0.017 C 
HETATM   13  C20 UNL     1      -0.570  51.721 -24.478  1.00  0.00    -0.007 C 
HETATM   14  C21 UNL     1       0.664  51.622 -23.547  1.00  0.00     0.021 C 
HETATM   15  C22 UNL     1      -1.036  53.191 -24.662  1.00  0.00     0.022 C 
HETATM   16  C23 UNL     1      -0.074  54.060 -25.449  1.00  0.00     0.080 C 
HETATM   17  C24 UNL     1       0.152  53.461 -26.813  1.00  0.00     0.135 C 
HETATM   18  O4  UNL     1      -0.054  54.124 -27.828  1.00  0.00    -0.297 OA
HETATM   19  C25 UNL     1       0.689  52.028 -26.859  1.00  0.00     0.018 C 
HETATM   20  C26 UNL     1       2.184  52.072 -26.475  1.00  0.00     0.023 C 
HETATM   21  C27 UNL     1       0.660  51.527 -28.325  1.00  0.00     0.023 C 
HETATM   22  C28 UNL     1      -0.179  51.106 -25.898  1.00  0.00     0.021 C 
HETATM   23  C29 UNL     1      -1.458  50.613 -26.600  1.00  0.00     0.090 C 
HETATM   24  C30 UNL     1      -2.131  49.573 -25.752  1.00  0.00     0.157 C 
HETATM   25  O5  UNL     1      -2.425  48.471 -26.203  1.00  0.00    -0.293 OA
ENDROOT
BRANCH   1  26
HETATM   26  C2  UNL     1      -6.701  49.770 -21.429  1.00  0.00    -0.014 C 
HETATM   27  C1  UNL     1      -7.971  49.325 -22.176  1.00  0.00     0.010 C 
BRANCH  26  28
HETATM   28  C3  UNL     1      -6.771  49.373 -19.935  1.00  0.00     0.007 C 
BRANCH  28  29
HETATM   29  C4  UNL     1      -8.082  48.708 -19.484  1.00  0.00     0.035 C 
BRANCH  29  30
HETATM   30  C5  UNL     1      -8.373  48.783 -17.975  1.00  0.00     0.151 C 
BRANCH  30  31
HETATM   31  O1  UNL     1      -7.161  48.424 -17.276  1.00  0.00    -0.393 OA
HETATM   32  H10 UNL     1      -6.498  49.105 -17.481  1.00  0.00     0.210 HD
ENDBRANCH  30  31
BRANCH  30  33
HETATM   33  C6  UNL     1      -9.499  47.861 -17.419  1.00  0.00     0.076 C 
HETATM   34  C7  UNL     1     -10.666  47.677 -18.386  1.00  0.00     0.048 C 
HETATM   35  C8  UNL     1      -8.997  46.494 -16.939  1.00  0.00     0.048 C 
BRANCH  33  36
HETATM   36  O2  UNL     1     -10.031  48.530 -16.256  1.00  0.00    -0.388 OA
HETATM   37  H17 UNL     1      -9.245  48.765 -15.725  1.00  0.00     0.210 HD
ENDBRANCH  33  36
ENDBRANCH  30  33
ENDBRANCH  29  30
ENDBRANCH  28  29
ENDBRANCH  26  28
ENDBRANCH   1  26
TORSDOF 7
ENDMDL
