MODEL 1
REMARK minimizedAffinity -6.60975885
REMARK CNNscore 0.468555212
REMARK CNNaffinity 6.95985603
REMARK  7 active torsions:
REMARK  status: ('A' for Active; 'I' for Inactive)
REMARK    1  A    between atoms: C2_2  and  C3_3 
REMARK    2  A    between atoms: C2_2  and  C4_6 
REMARK    3  A    between atoms: C3_3  and  O2_5 
REMARK    4  A    between atoms: C4_6  and  C6_8 
REMARK    5  A    between atoms: C6_8  and  C7_10 
REMARK    6  A    between atoms: C7_10  and  C8_11 
REMARK    7  A    between atoms: C8_11  and  C10_13 
ROOT
HETATM    1  C10 UNL     1     -10.207  -7.082  -5.035  1.00  0.00    -0.001 C 
HETATM    2  C11 UNL     1      -8.826  -6.959  -5.742  1.00  0.00     0.007 C 
HETATM    3  C12 UNL     1      -7.833  -7.851  -4.973  1.00  0.00     0.015 C 
HETATM    4  C13 UNL     1      -8.710  -8.729  -4.066  1.00  0.00    -0.013 C 
HETATM    5  C14 UNL     1      -9.204  -9.931  -4.932  1.00  0.00     0.021 C 
HETATM    6  C15 UNL     1      -8.089  -9.363  -2.826  1.00  0.00    -0.068 C 
HETATM    7  C16 UNL     1      -8.873  -9.655  -1.752  1.00  0.00    -0.068 C 
HETATM    8  C17 UNL     1     -10.355  -9.282  -1.724  1.00  0.00     0.036 C 
HETATM    9  C18 UNL     1     -10.922  -8.479  -2.917  1.00  0.00     0.015 C 
HETATM   10  C19 UNL     1      -9.827  -7.697  -3.652  1.00  0.00    -0.029 C 
HETATM   11  C20 UNL     1      -9.307  -6.568  -2.708  1.00  0.00     0.016 C 
HETATM   12  C21 UNL     1      -8.255 -10.291  -0.481  1.00  0.00    -0.015 C 
HETATM   13  C22 UNL     1      -7.767  -9.079   0.358  1.00  0.00     0.020 C 
HETATM   14  C23 UNL     1      -9.239 -11.098   0.421  1.00  0.00     0.021 C 
HETATM   15  C24 UNL     1      -9.203 -12.596   0.172  1.00  0.00     0.080 C 
HETATM   16  C25 UNL     1      -7.829 -13.120   0.532  1.00  0.00     0.135 C 
HETATM   17  O4  UNL     1      -7.707 -14.160   1.183  1.00  0.00    -0.297 OA
HETATM   18  C26 UNL     1      -6.610 -12.312   0.050  1.00  0.00     0.018 C 
HETATM   19  C27 UNL     1      -5.905 -11.728   1.279  1.00  0.00     0.023 C 
HETATM   20  C28 UNL     1      -5.648 -13.312  -0.630  1.00  0.00     0.023 C 
HETATM   21  C29 UNL     1      -7.108 -11.251  -0.982  1.00  0.00     0.013 C 
HETATM   22  C30 UNL     1      -6.019 -10.439  -1.695  1.00  0.00     0.011 C 
HETATM   23  C31 UNL     1      -6.608  -9.685  -2.895  1.00  0.00     0.036 C 
ENDROOT
BRANCH   1  24
HETATM   24  C8  UNL     1     -11.021  -5.758  -5.091  1.00  0.00    -0.007 C 
HETATM   25  C9  UNL     1     -12.164  -5.792  -6.111  1.00  0.00     0.011 C 
BRANCH  24  26
HETATM   26  C7  UNL     1     -10.145  -4.501  -5.321  1.00  0.00     0.083 C 
BRANCH  26  27
HETATM   27  C6  UNL     1     -10.756  -3.154  -4.941  1.00  0.00     0.135 C 
HETATM   28  O3  UNL     1     -11.967  -2.997  -4.786  1.00  0.00    -0.297 OA
BRANCH  27  29
HETATM   29  C4  UNL     1      -9.783  -1.976  -4.809  1.00  0.00     0.090 C 
HETATM   30  C5  UNL     1     -10.564  -0.694  -4.498  1.00  0.00     0.023 C 
BRANCH  29  31
HETATM   31  C2  UNL     1      -8.927  -1.916  -6.060  1.00  0.00     0.017 C 
HETATM   32  C1  UNL     1      -9.405  -1.825  -7.316  1.00  0.00     0.026 C 
BRANCH  31  33
HETATM   33  C3  UNL     1      -7.461  -1.939  -5.817  1.00  0.00     0.172 C 
HETATM   34  O1  UNL     1      -6.620  -1.521  -6.593  1.00  0.00    -0.646 OA
BRANCH  33  35
HETATM   35  O2  UNL     1      -7.107  -2.479  -4.639  1.00  0.00    -0.773 OA
HETATM   36  H3  UNL     1      -6.128  -2.424  -4.635  1.00  0.00     0.167 HD
ENDBRANCH  33  35
ENDBRANCH  31  33
ENDBRANCH  29  31
ENDBRANCH  27  29
ENDBRANCH  26  27
ENDBRANCH  24  26
ENDBRANCH   1  24
TORSDOF 7
ENDMDL
