MODEL 1
REMARK minimizedAffinity -9.54109478
REMARK CNNscore 0.618370175
REMARK CNNaffinity 6.98485374
REMARK  14 active torsions:
REMARK  status: ('A' for Active; 'I' for Inactive)
REMARK    1  A    between atoms: C19_21  and  O3_22 
REMARK    2  A    between atoms: C19_21  and  C20_23 
REMARK    3  A    between atoms: C20_23  and  C21_25 
REMARK    4  A    between atoms: C21_25  and  O5_26 
REMARK    5  A    between atoms: O5_26  and  C22_27 
REMARK    6  A    between atoms: C22_27  and  C23_29 
REMARK    7  A    between atoms: C23_29  and  C24_30 
REMARK    8  A    between atoms: C24_30  and  C25_31 
REMARK       I    between atoms: C25_31  and  N1_33 
REMARK    9  A    between atoms: N1_33  and  C26_34 
REMARK   10  A    between atoms: C26_34  and  C27_35 
REMARK   11  A    between atoms: C26_34  and  C30_40 
REMARK   12  A    between atoms: C27_35  and  C28_36 
REMARK   13  A    between atoms: C28_36  and  C29_37 
REMARK       I    between atoms: C29_37  and  N2_38 
REMARK   14  A    between atoms: C30_40  and  O10_42 
ROOT
HETATM    1  C20 UNL     1      -1.064   6.443  14.425  1.00  0.00     0.185 C 
HETATM    2  O4  UNL     1      -1.024   7.112  15.463  1.00  0.00    -0.292 OA
ENDROOT
BRANCH   1   3
HETATM    3  C19 UNL     1      -2.346   6.373  13.544  1.00  0.00     0.128 C 
HETATM    4  C14 UNL     1      -3.683   6.508  14.342  1.00  0.00     0.005 C 
HETATM    5  C13 UNL     1      -4.168   7.935  14.619  1.00  0.00     0.091 C 
HETATM    6  C15 UNL     1      -3.615   5.733  15.687  1.00  0.00     0.019 C 
HETATM    7  C16 UNL     1      -4.674   5.879  13.327  1.00  0.00     0.002 C 
HETATM    8  C12 UNL     1      -5.605   7.905  15.126  1.00  0.00     0.133 C 
HETATM    9  C11 UNL     1      -6.636   7.171  14.245  1.00  0.00     0.072 C 
HETATM   10  O2  UNL     1      -5.898   8.509  16.156  1.00  0.00    -0.297 OA
HETATM   11  C2  UNL     1      -8.110   7.149  14.794  1.00  0.00    -0.009 C 
HETATM   12  C10 UNL     1      -6.105   5.756  13.868  1.00  0.00     0.003 C 
HETATM   13  C1  UNL     1      -8.213   6.480  16.183  1.00  0.00     0.021 C 
HETATM   14  C3  UNL     1      -8.641   8.613  14.877  1.00  0.00     0.022 C 
HETATM   15  C7  UNL     1      -8.993   6.340  13.823  1.00  0.00    -0.067 C 
HETATM   16  C4  UNL     1     -10.152   8.714  15.026  1.00  0.00     0.084 C 
HETATM   17  C5  UNL     1     -10.837   7.982  13.905  1.00  0.00     0.149 C 
HETATM   18  O1  UNL     1     -11.924   8.333  13.453  1.00  0.00    -0.293 OA
HETATM   19  C6  UNL     1     -10.202   6.745  13.395  1.00  0.00     0.053 C 
HETATM   20  C8  UNL     1      -8.460   5.000  13.368  1.00  0.00     0.035 C 
HETATM   21  C9  UNL     1      -7.037   5.105  12.836  1.00  0.00     0.010 C 
HETATM   22  C17 UNL     1      -3.969   4.603  12.883  1.00  0.00     0.009 C 
HETATM   23  C18 UNL     1      -2.473   4.967  12.883  1.00  0.00     0.047 C 
BRANCH   3  24
HETATM   24  O3  UNL     1      -2.345   7.301  12.455  1.00  0.00    -0.381 OA
HETATM   25  H25 UNL     1      -2.116   8.184  12.792  1.00  0.00     0.211 HD
ENDBRANCH   3  24
ENDBRANCH   1   3
BRANCH   1  26
HETATM   26  C21 UNL     1       0.214   5.796  13.887  1.00  0.00     0.260 C 
BRANCH  26  27
HETATM   27  O5  UNL     1       0.732   6.353  12.681  1.00  0.00    -0.314 OA
BRANCH  27  28
HETATM   28  C22 UNL     1       1.507   7.461  12.873  1.00  0.00     0.259 C 
HETATM   29  O6  UNL     1       2.580   7.458  13.458  1.00  0.00    -0.265 OA
BRANCH  28  30
HETATM   30  C23 UNL     1       0.945   8.676  12.170  1.00  0.00     0.120 C 
BRANCH  30  31
HETATM   31  C24 UNL     1      -0.129   8.377  11.131  1.00  0.00     0.112 C 
BRANCH  31  32
HETATM   32  C25 UNL     1       0.447   8.226   9.737  1.00  0.00     0.218 C 
HETATM   33  O7  UNL     1       0.054   8.872   8.773  1.00  0.00    -0.274 OA
HETATM   34  N1  UNL     1       1.436   7.266   9.661  1.00  0.00    -0.347 N 
HETATM   35  H32 UNL     1       1.931   7.082  10.526  1.00  0.00     0.163 HD
BRANCH  34  36
HETATM   36  C26 UNL     1       2.229   7.138   8.433  1.00  0.00     0.182 C 
BRANCH  36  37
HETATM   37  C27 UNL     1       2.945   5.786   8.351  1.00  0.00     0.045 C 
BRANCH  37  38
HETATM   38  C28 UNL     1       2.975   5.166   6.950  1.00  0.00     0.105 C 
BRANCH  38  39
HETATM   39  C29 UNL     1       3.794   3.892   6.919  1.00  0.00     0.215 C 
HETATM   40  N2  UNL     1       3.432   3.022   5.932  1.00  0.00    -0.370 N 
HETATM   41  H38 UNL     1       3.900   2.123   5.925  1.00  0.00     0.159 HD
HETATM   42  H39 UNL     1       2.556   3.101   5.434  1.00  0.00     0.159 HD
HETATM   43  O8  UNL     1       4.710   3.631   7.687  1.00  0.00    -0.274 OA
ENDBRANCH  38  39
ENDBRANCH  37  38
ENDBRANCH  36  37
BRANCH  36  44
HETATM   44  C30 UNL     1       3.226   8.294   8.368  1.00  0.00     0.163 C 
HETATM   45  O9  UNL     1       3.258   9.165   7.509  1.00  0.00    -0.648 OA
BRANCH  44  46
HETATM   46  O10 UNL     1       4.079   8.322   9.410  1.00  0.00    -0.775 OA
HETATM   47  H40 UNL     1       4.670   9.084   9.234  1.00  0.00     0.167 HD
ENDBRANCH  44  46
ENDBRANCH  36  44
ENDBRANCH  34  36
ENDBRANCH  31  32
ENDBRANCH  30  31
ENDBRANCH  28  30
ENDBRANCH  27  28
ENDBRANCH  26  27
ENDBRANCH   1  26
TORSDOF 14
ENDMDL
