MODEL 1
REMARK minimizedAffinity -8.03860474
REMARK CNNscore 0.791900277
REMARK CNNaffinity 7.10504103
REMARK  12 active torsions:
REMARK  status: ('A' for Active; 'I' for Inactive)
REMARK    1  A    between atoms: O1_2  and  C2_3 
REMARK    2  A    between atoms: C2_3  and  C3_4 
REMARK    3  A    between atoms: C3_4  and  C4_5 
REMARK    4  A    between atoms: C4_5  and  O2_6 
REMARK    5  A    between atoms: O2_6  and  C5_7 
REMARK    6  A    between atoms: C20_23  and  C21_24 
REMARK    7  A    between atoms: C21_24  and  O4_26 
REMARK    8  A    between atoms: C21_24  and  C23_27 
REMARK    9  A    between atoms: C23_27  and  O5_28 
REMARK   10  A    between atoms: C23_27  and  C24_29 
REMARK   11  A    between atoms: C32_38  and  O7_39 
REMARK   12  A    between atoms: C36_44  and  O8_45 
ROOT
HETATM    1  C5  UNL     1       6.553  55.575  -7.062  1.00  0.00     0.122 C 
HETATM    2  C6  UNL     1       6.771  55.461  -8.569  1.00  0.00     0.033 C 
HETATM    3  C7  UNL     1       5.481  55.154  -9.327  1.00  0.00     0.013 C 
HETATM    4  C8  UNL     1       4.711  53.910  -8.781  1.00  0.00    -0.026 C 
HETATM    5  C9  UNL     1       5.580  52.653  -9.051  1.00  0.00     0.016 C 
HETATM    6  C10 UNL     1       4.487  54.087  -7.256  1.00  0.00     0.071 C 
HETATM    7  C11 UNL     1       5.800  54.364  -6.502  1.00  0.00     0.045 C 
HETATM    8  C12 UNL     1       3.485  55.201  -6.957  1.00  0.00     0.154 C 
HETATM    9  O3  UNL     1       3.548  55.912  -5.957  1.00  0.00    -0.293 OA
HETATM   10  C13 UNL     1       2.338  55.390  -7.868  1.00  0.00     0.057 C 
HETATM   11  C14 UNL     1       2.246  54.719  -9.024  1.00  0.00    -0.037 C 
HETATM   12  C15 UNL     1       3.342  53.786  -9.549  1.00  0.00     0.026 C 
HETATM   13  C16 UNL     1       2.760  52.354  -9.671  1.00  0.00     0.011 C 
HETATM   14  C17 UNL     1       1.457  52.308 -10.498  1.00  0.00     0.014 C 
HETATM   15  C18 UNL     1       0.393  53.288  -9.958  1.00  0.00    -0.002 C 
HETATM   16  C19 UNL     1      -0.071  52.793  -8.562  1.00  0.00     0.019 C 
HETATM   17  C20 UNL     1      -0.810  53.567 -10.918  1.00  0.00     0.034 C 
HETATM   18  C34 UNL     1      -1.352  54.936 -10.422  1.00  0.00     0.012 C 
HETATM   19  C35 UNL     1      -0.218  55.590  -9.598  1.00  0.00     0.044 C 
HETATM   20  C36 UNL     1       1.013  54.727  -9.896  1.00  0.00     0.089 C 
ENDROOT
BRANCH  17  21
HETATM   21  C21 UNL     1      -1.886  52.484 -11.254  1.00  0.00     0.087 C 
HETATM   22  C22 UNL     1      -3.285  52.779 -10.691  1.00  0.00     0.049 C 
BRANCH  21  23
HETATM   23  O4  UNL     1      -1.444  51.267 -10.630  1.00  0.00    -0.387 OA
HETATM   24  H34 UNL     1      -2.145  50.600 -10.763  1.00  0.00     0.210 HD
ENDBRANCH  21  23
BRANCH  21  25
HETATM   25  C23 UNL     1      -1.918  52.285 -12.828  1.00  0.00     0.181 C 
BRANCH  25  26
HETATM   26  O5  UNL     1      -3.226  52.546 -13.357  1.00  0.00    -0.390 OA
HETATM   27  H36 UNL     1      -3.827  51.871 -13.003  1.00  0.00     0.210 HD
ENDBRANCH  25  26
BRANCH  25  28
HETATM   28  C24 UNL     1      -1.363  50.920 -13.319  1.00  0.00     0.158 C 
HETATM   29  O6  UNL     1      -2.346  50.211 -14.104  1.00  0.00    -0.372 OA
HETATM   30  C25 UNL     1      -2.048  50.418 -15.501  1.00  0.00     0.197 C 
HETATM   31  C26 UNL     1      -0.609  50.959 -15.615  1.00  0.00     0.035 C 
HETATM   32  C32 UNL     1      -2.195  49.134 -16.388  1.00  0.00     0.301 C 
HETATM   33  C27 UNL     1      -0.094  50.932 -14.180  1.00  0.00     0.020 C 
HETATM   34  C29 UNL     1       0.166  50.079 -16.640  1.00  0.00     0.043 C 
HETATM   35  C28 UNL     1       0.930  52.014 -13.875  1.00  0.00     0.013 C 
HETATM   36  C30 UNL     1      -0.639  50.106 -17.938  1.00  0.00    -0.019 C 
HETATM   37  C33 UNL     1       0.144  48.583 -16.197  1.00  0.00     0.283 C 
HETATM   38  C31 UNL     1      -1.863  49.559 -17.804  1.00  0.00     0.042 C 
HETATM   39  N1  UNL     1      -1.244  48.109 -15.952  1.00  0.00     0.126 N 
HETATM   40  H48 UNL     1      -1.417  47.286 -16.526  1.00  0.00     0.320 HD
BRANCH  32  41
HETATM   41  O7  UNL     1      -3.489  48.606 -16.322  1.00  0.00    -0.358 OA
HETATM   42  H47 UNL     1      -3.552  48.321 -15.393  1.00  0.00     0.213 HD
ENDBRANCH  32  41
ENDBRANCH  25  28
ENDBRANCH  21  25
ENDBRANCH  17  21
BRANCH  20  43
HETATM   43  O8  UNL     1       1.474  55.144 -11.194  1.00  0.00    -0.384 OA
HETATM   44  H55 UNL     1       1.788  56.059 -11.105  1.00  0.00     0.211 HD
ENDBRANCH  20  43
BRANCH   1  45
HETATM   45  O2  UNL     1       7.842  55.628  -6.439  1.00  0.00    -0.386 OA
BRANCH  45  46
HETATM   46  C4  UNL     1       7.946  56.611  -5.409  1.00  0.00     0.170 C 
BRANCH  46  47
HETATM   47  C3  UNL     1       9.388  57.077  -5.234  1.00  0.00     0.052 C 
BRANCH  47  48
HETATM   48  C2  UNL     1       9.464  58.506  -4.711  1.00  0.00     0.169 C 
BRANCH  48  49
HETATM   49  O1  UNL     1      10.610  59.138  -5.283  1.00  0.00    -0.396 OA
HETATM   50  C1  UNL     1      11.750  59.010  -4.443  1.00  0.00     0.201 C 
ENDBRANCH  48  49
ENDBRANCH  47  48
ENDBRANCH  46  47
ENDBRANCH  45  46
ENDBRANCH   1  45
TORSDOF 12
ENDMDL
