MODEL 1
REMARK minimizedAffinity -9.97348022
REMARK  9 active torsions:
REMARK  status: ('A' for Active; 'I' for Inactive)
REMARK    1  A    between atoms: C2_2  and  C3_3 
REMARK    2  A    between atoms: C2_2  and  C9_12 
REMARK    3  A    between atoms: C3_3  and  C4_4 
REMARK    4  A    between atoms: C4_4  and  O1_5 
REMARK    5  A    between atoms: C4_4  and  C5_6 
REMARK    6  A    between atoms: C5_6  and  O2_7 
REMARK    7  A    between atoms: C5_6  and  C6_8 
REMARK    8  A    between atoms: C6_8  and  O3_11 
REMARK    9  A    between atoms: C15_18  and  O4_19 
ROOT
HETATM    1  C9  UNL     1      -7.229   7.229  14.018  1.00  0.00    -0.002 C 
HETATM    2  C10 UNL     1      -7.115   8.503  14.913  1.00  0.00     0.006 C 
HETATM    3  C11 UNL     1      -5.655   8.619  15.389  1.00  0.00     0.011 C 
HETATM    4  C12 UNL     1      -4.875   7.634  14.508  1.00  0.00    -0.030 C 
HETATM    5  C13 UNL     1      -4.591   8.374  13.162  1.00  0.00     0.016 C 
HETATM    6  C14 UNL     1      -3.539   7.090  15.105  1.00  0.00     0.032 C 
HETATM    7  C15 UNL     1      -2.517   8.174  15.515  1.00  0.00     0.124 C 
HETATM    8  C16 UNL     1      -1.543   8.665  14.448  1.00  0.00     0.038 C 
HETATM    9  C17 UNL     1      -1.065   7.674  13.372  1.00  0.00     0.012 C 
HETATM   10  C18 UNL     1       0.494   7.550  13.221  1.00  0.00     0.018 C 
HETATM   11  C19 UNL     1       1.089   8.868  12.691  1.00  0.00     0.023 C 
HETATM   12  C20 UNL     1       1.213   7.166  14.525  1.00  0.00     0.023 C 
HETATM   13  C21 UNL     1       0.803   6.467  12.167  1.00  0.00     0.135 C 
HETATM   14  O5  UNL     1       1.922   5.955  12.061  1.00  0.00    -0.297 OA
HETATM   15  C22 UNL     1      -0.306   6.104  11.210  1.00  0.00     0.080 C 
HETATM   16  C23 UNL     1      -1.528   5.604  11.979  1.00  0.00     0.018 C 
HETATM   17  C24 UNL     1      -1.716   6.294  13.332  1.00  0.00    -0.026 A 
HETATM   18  C25 UNL     1      -1.635   5.401  14.549  1.00  0.00     0.021 A 
HETATM   19  C26 UNL     1      -2.973   5.996  14.171  1.00  0.00    -0.025 A 
HETATM   20  C27 UNL     1      -3.993   4.936  13.726  1.00  0.00     0.011 C 
HETATM   21  C28 UNL     1      -5.373   5.478  13.328  1.00  0.00     0.011 C 
HETATM   22  C29 UNL     1      -5.923   6.453  14.382  1.00  0.00    -0.032 C 
HETATM   23  C30 UNL     1      -6.171   5.670  15.712  1.00  0.00     0.016 C 
ENDROOT
BRANCH   1  24
HETATM   24  C2  UNL     1      -8.626   6.542  14.155  1.00  0.00    -0.011 C 
HETATM   25  C1  UNL     1      -8.956   5.660  12.947  1.00  0.00     0.010 C 
BRANCH  24  26
HETATM   26  C3  UNL     1      -9.729   7.622  14.358  1.00  0.00     0.039 C 
BRANCH  26  27
HETATM   27  C4  UNL     1     -11.185   7.117  14.286  1.00  0.00     0.150 C 
BRANCH  27  28
HETATM   28  O1  UNL     1     -11.913   7.572  15.431  1.00  0.00    -0.393 OA
HETATM   29  H8  UNL     1     -11.808   8.540  15.485  1.00  0.00     0.210 HD
ENDBRANCH  27  28
BRANCH  27  30
HETATM   30  C5  UNL     1     -11.887   7.577  12.975  1.00  0.00     0.180 C 
BRANCH  30  31
HETATM   31  O2  UNL     1     -13.148   6.914  12.839  1.00  0.00    -0.390 OA
HETATM   32  H10 UNL     1     -12.980   6.024  12.484  1.00  0.00     0.210 HD
ENDBRANCH  30  31
BRANCH  30  33
HETATM   33  C6  UNL     1     -12.075   9.124  12.869  1.00  0.00     0.079 C 
HETATM   34  C7  UNL     1     -11.203   9.903  13.860  1.00  0.00     0.048 C 
HETATM   35  C8  UNL     1     -13.545   9.498  13.106  1.00  0.00     0.048 C 
BRANCH  33  36
HETATM   36  O3  UNL     1     -11.756   9.565  11.540  1.00  0.00    -0.388 OA
HETATM   37  H17 UNL     1     -10.827   9.301  11.372  1.00  0.00     0.210 HD
ENDBRANCH  33  36
ENDBRANCH  30  33
ENDBRANCH  27  30
ENDBRANCH  26  27
ENDBRANCH  24  26
ENDBRANCH   1  24
BRANCH   7  38
HETATM   38  O4  UNL     1      -1.751   7.691  16.632  1.00  0.00    -0.395 OA
HETATM   39  H28 UNL     1      -1.243   8.440  16.990  1.00  0.00     0.210 HD
ENDBRANCH   7  38
TORSDOF 9
ENDMDL
