MODEL 1
REMARK minimizedAffinity -9.20559978
REMARK CNNscore 0.616574943
REMARK CNNaffinity 7.4730649
REMARK  12 active torsions:
REMARK  status: ('A' for Active; 'I' for Inactive)
REMARK    1  A    between atoms: C2_2  and  O2_4 
REMARK    2  A    between atoms: O2_4  and  C3_5 
REMARK    3  A    between atoms: C4_6  and  O3_7 
REMARK    4  A    between atoms: O3_7  and  C5_8 
REMARK    5  A    between atoms: C16_19  and  O4_20 
REMARK    6  A    between atoms: C19_23  and  C20_24 
REMARK    7  A    between atoms: C24_28  and  C25_29 
REMARK    8  A    between atoms: C25_29  and  O5_32 
REMARK    9  A    between atoms: C35_42  and  C36_43 
REMARK   10  A    between atoms: C36_43  and  O8_44 
REMARK   11  A    between atoms: C37_45  and  O9_46 
REMARK   12  A    between atoms: C38_47  and  O10_48 
ROOT
HETATM    1  C5  UNL     1       3.555   7.858  11.988  1.00  0.00     0.133 C 
HETATM    2  C6  UNL     1       2.675   8.856  12.754  1.00  0.00     0.034 C 
HETATM    3  C7  UNL     1       1.412   9.261  12.008  1.00  0.00     0.012 C 
HETATM    4  C8  UNL     1       0.437   8.063  11.749  1.00  0.00    -0.033 C 
HETATM    5  C9  UNL     1      -0.340   8.393  10.438  1.00  0.00     0.016 C 
HETATM    6  C10 UNL     1       1.283   6.734  11.514  1.00  0.00     0.004 C 
HETATM    7  C11 UNL     1       1.324   5.736  12.700  1.00  0.00     0.007 C 
HETATM    8  C12 UNL     1       0.233   5.763  13.754  1.00  0.00     0.011 C 
HETATM    9  C13 UNL     1      -1.050   6.521  13.383  1.00  0.00    -0.030 C 
HETATM   10  C14 UNL     1      -1.739   5.768  12.213  1.00  0.00     0.016 C 
HETATM   11  C15 UNL     1      -0.610   7.978  12.971  1.00  0.00     0.032 C 
HETATM   12  C16 UNL     1      -1.844   8.944  12.864  1.00  0.00     0.124 C 
HETATM   13  C17 UNL     1      -2.800   8.901  14.071  1.00  0.00     0.038 C 
HETATM   14  C18 UNL     1      -3.255   7.473  14.325  1.00  0.00     0.004 C 
HETATM   15  C19 UNL     1      -4.279   7.202  15.460  1.00  0.00     0.025 C 
HETATM   16  C28 UNL     1      -3.912   5.759  15.920  1.00  0.00     0.009 C 
HETATM   17  C29 UNL     1      -2.729   5.296  15.060  1.00  0.00     0.011 C 
HETATM   18  C30 UNL     1      -2.019   6.599  14.656  1.00  0.00    -0.032 C 
HETATM   19  C31 UNL     1      -1.270   7.112  15.934  1.00  0.00     0.016 C 
HETATM   20  C32 UNL     1       2.759   6.980  10.969  1.00  0.00    -0.017 C 
HETATM   21  C33 UNL     1       2.754   7.596   9.546  1.00  0.00     0.018 C 
HETATM   22  C34 UNL     1       3.503   5.626  10.772  1.00  0.00     0.018 C 
ENDROOT
BRANCH   1  23
HETATM   23  O3  UNL     1       4.596   8.580  11.313  1.00  0.00    -0.352 OA
BRANCH  23  24
HETATM   24  C4  UNL     1       5.232   9.562  12.129  1.00  0.00     0.293 C 
HETATM   25  C3  UNL     1       4.889   9.336  13.618  1.00  0.00     0.218 C 
HETATM   26  C38 UNL     1       5.806   8.309  14.306  1.00  0.00     0.183 C 
HETATM   27  C37 UNL     1       7.273   8.524  13.919  1.00  0.00     0.180 C 
HETATM   28  C35 UNL     1       7.443   8.588  12.394  1.00  0.00     0.179 C 
HETATM   29  O7  UNL     1       6.634   9.652  11.859  1.00  0.00    -0.348 OA
BRANCH  25  30
HETATM   30  O2  UNL     1       5.029  10.621  14.280  1.00  0.00    -0.309 OA
BRANCH  30  31
HETATM   31  C2  UNL     1       4.091  10.891  15.229  1.00  0.00     0.255 C 
HETATM   32  C1  UNL     1       4.696  10.800  16.596  1.00  0.00     0.126 C 
HETATM   33  O1  UNL     1       2.917  11.153  15.006  1.00  0.00    -0.266 OA
ENDBRANCH  30  31
ENDBRANCH  25  30
BRANCH  26  34
HETATM   34  O10 UNL     1       5.419   6.962  14.011  1.00  0.00    -0.390 OA
HETATM   35  H64 UNL     1       4.526   6.830  14.382  1.00  0.00     0.210 HD
ENDBRANCH  26  34
BRANCH  27  36
HETATM   36  O9  UNL     1       7.741   9.754  14.498  1.00  0.00    -0.390 OA
HETATM   37  H62 UNL     1       7.484  10.470  13.886  1.00  0.00     0.210 HD
ENDBRANCH  27  36
BRANCH  28  38
HETATM   38  C36 UNL     1       7.259   7.244  11.670  1.00  0.00     0.198 C 
BRANCH  38  39
HETATM   39  O8  UNL     1       7.125   7.416  10.263  1.00  0.00    -0.398 OA
HETATM   40  H60 UNL     1       8.032   7.384   9.899  1.00  0.00     0.209 HD
ENDBRANCH  38  39
ENDBRANCH  28  38
ENDBRANCH  23  24
ENDBRANCH   1  23
BRANCH  12  41
HETATM   41  O4  UNL     1      -1.412  10.295  12.723  1.00  0.00    -0.395 OA
HETATM   42  H24 UNL     1      -2.201  10.852  12.630  1.00  0.00     0.210 HD
ENDBRANCH  12  41
BRANCH  15  43
HETATM   43  C20 UNL     1      -5.780   7.330  15.057  1.00  0.00     0.062 C 
HETATM   44  C21 UNL     1      -6.247   8.795  15.051  1.00  0.00     0.046 C 
HETATM   45  C22 UNL     1      -6.705   6.492  15.943  1.00  0.00     0.041 C 
HETATM   46  C23 UNL     1      -7.870   6.175  15.032  1.00  0.00     0.038 C 
HETATM   47  C24 UNL     1      -7.255   6.151  13.635  1.00  0.00     0.156 C 
HETATM   48  O6  UNL     1      -5.973   6.815  13.727  1.00  0.00    -0.372 OA
BRANCH  47  49
HETATM   49  C25 UNL     1      -7.098   4.733  13.012  1.00  0.00     0.076 C 
HETATM   50  C26 UNL     1      -7.641   3.652  13.955  1.00  0.00     0.048 C 
HETATM   51  C27 UNL     1      -5.628   4.445  12.684  1.00  0.00     0.048 C 
BRANCH  49  52
HETATM   52  O5  UNL     1      -7.833   4.656  11.783  1.00  0.00    -0.388 OA
HETATM   53  H43 UNL     1      -7.821   3.730  11.486  1.00  0.00     0.210 HD
ENDBRANCH  49  52
ENDBRANCH  47  49
ENDBRANCH  15  43
TORSDOF 12
ENDMDL
