MODEL 1
REMARK minimizedAffinity -6.76688671
REMARK CNNscore 0.769819736
REMARK CNNaffinity 6.62722731
REMARK  4 active torsions:
REMARK  status: ('A' for Active; 'I' for Inactive)
REMARK    1  A    between atoms: C2_2  and  C4_4 
REMARK    2  A    between atoms: C7_7  and  C8_8 
REMARK    3  A    between atoms: C8_8  and  O1_9 
REMARK    4  A    between atoms: C10_11  and  O2_12 
ROOT
HETATM    1  C4  UNL     1       1.823  54.860  -9.199  1.00  0.00     0.018 C 
HETATM    2  C5  UNL     1       0.333  55.163  -9.516  1.00  0.00     0.010 C 
HETATM    3  C6  UNL     1      -0.163  56.122  -8.421  1.00  0.00     0.013 C 
HETATM    4  C7  UNL     1       0.816  55.907  -7.257  1.00  0.00    -0.012 C 
HETATM    5  C9  UNL     1       0.895  57.092  -6.286  1.00  0.00     0.044 C 
HETATM    6  C10 UNL     1       2.077  56.942  -5.302  1.00  0.00     0.128 C 
HETATM    7  C11 UNL     1       3.482  56.702  -5.996  1.00  0.00    -0.006 C 
HETATM    8  C12 UNL     1       3.859  58.051  -6.707  1.00  0.00     0.019 C 
HETATM    9  C13 UNL     1       3.334  55.547  -7.083  1.00  0.00     0.002 C 
HETATM   10  C14 UNL     1       4.657  55.265  -7.804  1.00  0.00     0.006 C 
HETATM   11  C15 UNL     1       5.800  54.944  -6.839  1.00  0.00     0.006 C 
HETATM   12  C16 UNL     1       5.995  56.018  -5.746  1.00  0.00     0.003 C 
HETATM   13  C17 UNL     1       7.348  55.853  -4.933  1.00  0.00    -0.035 C 
HETATM   14  C18 UNL     1       7.496  54.438  -4.305  1.00  0.00     0.016 C 
HETATM   15  C19 UNL     1       8.543  55.994  -5.933  1.00  0.00     0.017 C 
HETATM   16  C20 UNL     1       9.825  56.469  -5.273  1.00  0.00     0.080 C 
HETATM   17  C21 UNL     1       9.639  57.868  -4.744  1.00  0.00     0.135 C 
HETATM   18  O3  UNL     1      10.575  58.671  -4.793  1.00  0.00    -0.297 OA
HETATM   19  C22 UNL     1       8.272  58.238  -4.138  1.00  0.00     0.017 C 
HETATM   20  C23 UNL     1       8.572  59.053  -2.856  1.00  0.00     0.023 C 
HETATM   21  C24 UNL     1       7.573  59.175  -5.131  1.00  0.00     0.023 C 
HETATM   22  C25 UNL     1       7.491  56.916  -3.775  1.00  0.00     0.009 C 
HETATM   23  C26 UNL     1       6.168  57.112  -3.009  1.00  0.00     0.007 C 
HETATM   24  C27 UNL     1       4.931  57.352  -3.871  1.00  0.00     0.011 C 
HETATM   25  C28 UNL     1       4.661  56.261  -4.939  1.00  0.00    -0.030 C 
HETATM   26  C29 UNL     1       4.212  54.982  -4.169  1.00  0.00     0.016 C 
HETATM   27  C30 UNL     1       2.153  55.829  -8.038  1.00  0.00     0.009 C 
ENDROOT
BRANCH   1  28
HETATM   28  C2  UNL     1       2.691  54.949 -10.442  1.00  0.00    -0.089 C 
HETATM   29  C1  UNL     1       3.050  56.141 -10.951  1.00  0.00     0.014 C 
HETATM   30  C3  UNL     1       3.168  53.672 -11.086  1.00  0.00     0.043 C 
ENDBRANCH   1  28
BRANCH   4  31
HETATM   31  C8  UNL     1       0.423  54.605  -6.497  1.00  0.00     0.174 C 
BRANCH  31  32
HETATM   32  O1  UNL     1      -0.903  54.719  -5.990  1.00  0.00    -0.400 OA
HETATM   33  H13 UNL     1      -1.136  53.860  -5.597  1.00  0.00     0.209 HD
ENDBRANCH  31  32
ENDBRANCH   4  31
BRANCH   6  34
HETATM   34  O2  UNL     1       2.110  58.112  -4.485  1.00  0.00    -0.395 OA
HETATM   35  H17 UNL     1       1.231  58.213  -4.082  1.00  0.00     0.210 HD
ENDBRANCH   6  34
TORSDOF 4
ENDMDL
