MODEL 1
REMARK minimizedAffinity -8.8552103
REMARK CNNscore 0.576519132
REMARK CNNaffinity 7.55487394
REMARK  11 active torsions:
REMARK  status: ('A' for Active; 'I' for Inactive)
REMARK    1  A    between atoms: C3_3  and  O1_4 
REMARK    2  A    between atoms: N1_14  and  O2_16 
REMARK    3  A    between atoms: O2_16  and  C13_17 
REMARK    4  A    between atoms: C13_17  and  C14_18 
REMARK       I    between atoms: C14_18  and  N2_20 
REMARK    5  A    between atoms: N2_20  and  C15_21 
REMARK    6  A    between atoms: C15_21  and  C16_22 
REMARK    7  A    between atoms: C15_21  and  C19_27 
REMARK    8  A    between atoms: C16_22  and  O5_24 
REMARK    9  A    between atoms: O5_24  and  C17_25 
REMARK   10  A    between atoms: C19_27  and  O6_28 
REMARK   11  A    between atoms: C19_27  and  C20_29 
ROOT
HETATM    1  C1  UNL     1       1.824  43.458 -13.326  1.00  0.00     0.015 C 
HETATM    2  C2  UNL     1       2.094  44.616 -13.161  1.00  0.00    -0.078 C 
HETATM    3  C3  UNL     1       2.452  46.040 -12.960  1.00  0.00     0.128 C 
HETATM    4  C4  UNL     1       2.952  46.629 -14.278  1.00  0.00     0.052 C 
HETATM    5  C5  UNL     1       1.695  47.085 -15.019  1.00  0.00     0.010 C 
HETATM    6  C6  UNL     1       0.561  47.171 -13.974  1.00  0.00     0.002 C 
HETATM    7  C7  UNL     1      -0.297  48.450 -14.053  1.00  0.00    -0.004 C 
HETATM    8  C8  UNL     1      -1.094  48.525 -15.361  1.00  0.00     0.010 C 
HETATM    9  C9  UNL     1      -1.671  49.914 -15.578  1.00  0.00     0.035 C 
HETATM   10  C10 UNL     1      -0.506  50.832 -15.813  1.00  0.00    -0.069 C 
HETATM   11  C11 UNL     1      -0.339  51.407 -17.017  1.00  0.00     0.030 C 
HETATM   12  C12 UNL     1       0.862  52.233 -17.334  1.00  0.00     0.032 C 
HETATM   13  N1  UNL     1       1.044  52.922 -18.419  1.00  0.00    -0.271 N 
ATOM     14  H1  UNL     1       1.880  53.476 -18.607  1.00  0.00     0.194 HD
HETATM   15  C26 UNL     1       1.971  52.295 -16.303  1.00  0.00     0.060 C 
HETATM   16  C27 UNL     1       1.897  51.165 -15.281  1.00  0.00     0.020 C 
HETATM   17  C28 UNL     1       0.487  50.972 -14.664  1.00  0.00    -0.016 C 
HETATM   18  C29 UNL     1       0.108  52.262 -13.881  1.00  0.00     0.020 C 
HETATM   19  C30 UNL     1       0.427  49.765 -13.628  1.00  0.00     0.002 C 
HETATM   20  C31 UNL     1       1.756  49.491 -12.894  1.00  0.00     0.007 C 
HETATM   21  C32 UNL     1       1.651  48.311 -11.932  1.00  0.00     0.014 C 
HETATM   22  C33 UNL     1       1.237  46.956 -12.589  1.00  0.00     0.003 C 
HETATM   23  C34 UNL     1       0.274  46.266 -11.595  1.00  0.00     0.020 C 
ENDROOT
BRANCH   3  24
HETATM   24  O1  UNL     1       3.486  46.097 -11.989  1.00  0.00    -0.377 OA
HETATM   25  H2  UNL     1       3.177  45.595 -11.216  1.00  0.00     0.211 HD
ENDBRANCH   3  24
BRANCH  13  26
HETATM   26  O2  UNL     1      -0.040  52.819 -19.304  1.00  0.00    -0.271 OA
BRANCH  26  27
HETATM   27  C13 UNL     1       0.325  53.422 -20.542  1.00  0.00     0.303 C 
BRANCH  27  28
HETATM   28  C14 UNL     1       0.469  52.384 -21.651  1.00  0.00     0.244 C 
HETATM   29  O3  UNL     1       1.507  51.749 -21.827  1.00  0.00    -0.271 OA
HETATM   30  N2  UNL     1      -0.650  52.188 -22.421  1.00  0.00    -0.343 N 
HETATM   31  H16 UNL     1      -1.512  52.639 -22.131  1.00  0.00     0.163 HD
BRANCH  30  32
HETATM   32  C15 UNL     1      -0.694  51.174 -23.482  1.00  0.00     0.217 C 
BRANCH  32  33
HETATM   33  C16 UNL     1      -1.718  50.108 -23.094  1.00  0.00     0.284 C 
HETATM   34  O4  UNL     1      -1.530  49.252 -22.235  1.00  0.00    -0.263 OA
BRANCH  33  35
HETATM   35  O5  UNL     1      -2.864  50.262 -23.810  1.00  0.00    -0.320 OA
BRANCH  35  36
HETATM   36  C17 UNL     1      -3.623  49.069 -24.048  1.00  0.00     0.174 C 
HETATM   37  C18 UNL     1      -3.403  48.588 -25.470  1.00  0.00     0.034 C 
ENDBRANCH  35  36
ENDBRANCH  33  35
ENDBRANCH  32  33
BRANCH  32  38
HETATM   38  C19 UNL     1      -1.140  51.779 -24.832  1.00  0.00     0.183 C 
BRANCH  38  39
HETATM   39  O6  UNL     1      -1.607  53.126 -24.644  1.00  0.00    -0.388 OA
HETATM   40  H24 UNL     1      -1.405  53.623 -25.458  1.00  0.00     0.210 HD
ENDBRANCH  38  39
BRANCH  38  41
HETATM   41  C20 UNL     1      -0.055  51.777 -25.892  1.00  0.00    -0.027 A 
HETATM   42  C21 UNL     1       1.295  51.622 -25.543  1.00  0.00     0.010 A 
HETATM   43  C22 UNL     1       2.285  51.613 -26.526  1.00  0.00     0.001 A 
HETATM   44  C23 UNL     1       1.938  51.761 -27.868  1.00  0.00     0.000 A 
HETATM   45  C24 UNL     1       0.601  51.919 -28.227  1.00  0.00     0.001 A 
HETATM   46  C25 UNL     1      -0.391  51.927 -27.246  1.00  0.00     0.010 A 
ENDBRANCH  38  41
ENDBRANCH  32  38
ENDBRANCH  30  32
ENDBRANCH  27  28
ENDBRANCH  26  27
ENDBRANCH  13  26
TORSDOF 11
ENDMDL
