MODEL 1
REMARK minimizedAffinity -7.58424234
REMARK CNNscore 0.474291503
REMARK CNNaffinity 6.4738059
REMARK  7 active torsions:
REMARK  status: ('A' for Active; 'I' for Inactive)
REMARK    1  A    between atoms: C2_2  and  C4_4 
REMARK    2  A    between atoms: C7_7  and  O1_9 
REMARK    3  A    between atoms: C9_10  and  C10_11 
REMARK    4  A    between atoms: C11_12  and  C12_13 
REMARK    5  A    between atoms: C14_15  and  C15_16 
REMARK    6  A    between atoms: C24_26  and  C26_28 
REMARK    7  A    between atoms: C29_32  and  O4_34 
ROOT
HETATM    1  C15 UNL     1       7.425   8.328  13.688  1.00  0.00     0.149 C 
HETATM    2  C16 UNL     1       7.308   9.589  14.527  1.00  0.00     0.054 C 
HETATM    3  C17 UNL     1       8.766  10.084  14.771  1.00  0.00     0.050 C 
HETATM    4  C18 UNL     1       9.522   9.311  13.626  1.00  0.00     0.272 C 
HETATM    5  O2  UNL     1      10.299  10.026  12.687  1.00  0.00    -0.360 OA
HETATM    6  C19 UNL     1      11.473  10.596  13.239  1.00  0.00     0.171 C 
HETATM    7  C20 UNL     1      11.168  11.970  13.808  1.00  0.00     0.027 C 
HETATM    8  C21 UNL     1       9.699  12.349  13.675  1.00  0.00     0.012 C 
HETATM    9  C22 UNL     1       8.772  11.715  14.726  1.00  0.00     0.032 C 
HETATM   10  C23 UNL     1       8.762  12.363  16.153  1.00  0.00    -0.066 C 
HETATM   11  C24 UNL     1       9.358  13.502  16.606  1.00  0.00    -0.021 C 
HETATM   12  C25 UNL     1      10.086  14.555  15.819  1.00  0.00     0.052 C 
HETATM   13  C27 UNL     1       7.854  11.547  17.048  1.00  0.00     0.038 C 
HETATM   14  C28 UNL     1       8.492  10.208  17.373  1.00  0.00     0.042 C 
HETATM   15  C29 UNL     1       9.275   9.576  16.192  1.00  0.00     0.067 C 
HETATM   16  C30 UNL     1       9.256   8.053  16.435  1.00  0.00     0.047 C 
HETATM   17  O5  UNL     1       8.543   8.584  12.862  1.00  0.00    -0.351 OA
ENDROOT
BRANCH   1  18
HETATM   18  C14 UNL     1       6.167   8.050  12.907  1.00  0.00     0.011 C 
HETATM   19  C12 UNL     1       5.958   7.236  11.850  1.00  0.00    -0.064 C 
HETATM   20  C13 UNL     1       7.007   6.314  11.279  1.00  0.00     0.048 C 
BRANCH  19  21
HETATM   21  C11 UNL     1       4.625   7.221  11.245  1.00  0.00     0.003 C 
HETATM   22  C10 UNL     1       3.719   8.213  11.275  1.00  0.00    -0.018 C 
BRANCH  22  23
HETATM   23  C9  UNL     1       2.329   8.182  10.667  1.00  0.00     0.050 C 
HETATM   24  C4  UNL     1       2.111   7.133   9.529  1.00  0.00     0.024 C 
HETATM   25  C5  UNL     1       0.661   6.662   9.707  1.00  0.00     0.013 C 
HETATM   26  C6  UNL     1       0.502   6.631  11.222  1.00  0.00     0.039 C 
HETATM   27  C7  UNL     1       1.155   7.942  11.674  1.00  0.00     0.062 C 
HETATM   28  C8  UNL     1       1.505   7.908  13.159  1.00  0.00     0.046 C 
BRANCH  24  29
HETATM   29  C2  UNL     1       2.455   7.638   8.135  1.00  0.00    -0.088 C 
HETATM   30  C1  UNL     1       3.137   8.784   7.959  1.00  0.00     0.014 C 
HETATM   31  C3  UNL     1       2.004   6.829   6.945  1.00  0.00     0.043 C 
ENDBRANCH  24  29
BRANCH  27  32
HETATM   32  O1  UNL     1       0.184   8.988  11.497  1.00  0.00    -0.390 OA
HETATM   33  H14 UNL     1       0.600   9.822  11.777  1.00  0.00     0.210 HD
ENDBRANCH  27  32
ENDBRANCH  22  23
ENDBRANCH  19  21
ENDBRANCH   1  18
BRANCH  15  34
HETATM   34  O4  UNL     1      10.652   9.974  16.308  1.00  0.00    -0.389 OA
HETATM   35  H44 UNL     1      10.990   9.685  17.174  1.00  0.00     0.210 HD
ENDBRANCH  15  34
BRANCH  11  36
HETATM   36  C26 UNL     1       9.305  13.836  18.073  1.00  0.00     0.265 C 
HETATM   37  O3  UNL     1      10.116  13.426  18.896  1.00  0.00    -0.302 OA
ENDBRANCH  11  36
TORSDOF 7
ENDMDL
