MODEL 1
REMARK minimizedAffinity -7.58012056
REMARK CNNscore 0.72019887
REMARK CNNaffinity 6.92635489
REMARK  6 active torsions:
REMARK  status: ('A' for Active; 'I' for Inactive)
REMARK    1  A    between atoms: C2_2  and  C30_32 
REMARK    2  A    between atoms: C3_3  and  C4_4 
REMARK    3  A    between atoms: C4_4  and  C5_6 
REMARK    4  A    between atoms: C5_6  and  C6_7 
REMARK    5  A    between atoms: C6_7  and  C8_9 
REMARK    6  A    between atoms: C30_32  and  O4_34 
ROOT
HETATM    1  C8  UNL     1       5.707  55.969  -8.269  1.00  0.00    -0.001 C 
HETATM    2  C9  UNL     1       6.388  54.903  -9.179  1.00  0.00     0.007 C 
HETATM    3  C10 UNL     1       5.276  54.021  -9.772  1.00  0.00     0.015 C 
HETATM    4  C11 UNL     1       3.970  54.788  -9.482  1.00  0.00    -0.013 C 
HETATM    5  C12 UNL     1       3.828  55.847 -10.619  1.00  0.00     0.021 C 
HETATM    6  C13 UNL     1       2.665  54.008  -9.470  1.00  0.00    -0.070 C 
HETATM    7  C14 UNL     1       2.493  52.834 -10.103  1.00  0.00    -0.022 C 
HETATM    8  C15 UNL     1       1.156  52.158 -10.153  1.00  0.00     0.034 C 
HETATM    9  C16 UNL     1       0.074  53.233 -10.335  1.00  0.00     0.013 C 
HETATM   10  C17 UNL     1      -1.326  52.690 -10.759  1.00  0.00     0.018 C 
HETATM   11  C18 UNL     1      -1.342  52.408 -12.277  1.00  0.00     0.023 C 
HETATM   12  C19 UNL     1      -1.726  51.387 -10.041  1.00  0.00     0.023 C 
HETATM   13  C20 UNL     1      -2.390  53.769 -10.512  1.00  0.00     0.135 C 
HETATM   14  O2  UNL     1      -3.587  53.493 -10.399  1.00  0.00    -0.297 OA
HETATM   15  C21 UNL     1      -1.943  55.216 -10.521  1.00  0.00     0.080 C 
HETATM   16  C22 UNL     1      -0.692  55.506  -9.683  1.00  0.00     0.017 C 
HETATM   17  C23 UNL     1       0.052  54.256  -9.141  1.00  0.00    -0.031 C 
HETATM   18  C24 UNL     1      -0.724  53.736  -7.900  1.00  0.00     0.016 C 
HETATM   19  C25 UNL     1       1.528  54.576  -8.617  1.00  0.00     0.024 C 
HETATM   20  C26 UNL     1       1.757  56.039  -8.162  1.00  0.00     0.010 C 
HETATM   21  C27 UNL     1       3.179  56.384  -7.663  1.00  0.00     0.011 C 
HETATM   22  C28 UNL     1       4.276  55.371  -8.054  1.00  0.00    -0.029 C 
HETATM   23  C29 UNL     1       4.360  54.274  -6.944  1.00  0.00     0.016 C 
ENDROOT
BRANCH   1  24
HETATM   24  C6  UNL     1       6.590  56.335  -7.039  1.00  0.00    -0.007 C 
HETATM   25  C7  UNL     1       7.003  55.101  -6.227  1.00  0.00     0.011 C 
BRANCH  24  26
HETATM   26  C5  UNL     1       5.840  57.319  -6.110  1.00  0.00     0.087 C 
BRANCH  26  27
HETATM   27  C4  UNL     1       6.665  57.731  -4.904  1.00  0.00     0.150 C 
HETATM   28  O1  UNL     1       6.273  57.524  -3.759  1.00  0.00    -0.293 OA
BRANCH  27  29
HETATM   29  C3  UNL     1       7.954  58.426  -5.180  1.00  0.00     0.063 C 
HETATM   30  C2  UNL     1       8.219  59.709  -4.872  1.00  0.00     0.015 C 
HETATM   31  C1  UNL     1       7.320  60.663  -4.146  1.00  0.00     0.055 C 
BRANCH  30  32
HETATM   32  C30 UNL     1       9.562  60.180  -5.280  1.00  0.00     0.171 C 
HETATM   33  O3  UNL     1       9.862  61.320  -5.589  1.00  0.00    -0.646 OA
BRANCH  32  34
HETATM   34  O4  UNL     1      10.478  59.201  -5.271  1.00  0.00    -0.773 OA
HETATM   35  H44 UNL     1      11.306  59.647  -5.545  1.00  0.00     0.167 HD
ENDBRANCH  32  34
ENDBRANCH  30  32
ENDBRANCH  27  29
ENDBRANCH  26  27
ENDBRANCH  24  26
ENDBRANCH   1  24
TORSDOF 6
ENDMDL
