MODEL 1
REMARK minimizedAffinity -9.58601856
REMARK  8 active torsions:
REMARK  status: ('A' for Active; 'I' for Inactive)
REMARK    1  A    between atoms: C4_4  and  C5_5 
REMARK    2  A    between atoms: C5_5  and  C6_6 
REMARK    3  A    between atoms: C6_6  and  C7_7 
REMARK    4  A    between atoms: C7_7  and  C9_9 
REMARK    5  A    between atoms: C18_18  and  C20_20 
REMARK    6  A    between atoms: C20_20  and  O2_22 
REMARK    7  A    between atoms: C21_23  and  O3_24 
REMARK    8  A    between atoms: C23_26  and  O4_27 
ROOT
HETATM    1  C9  UNL     1      -3.682  50.395 -24.845  1.00  0.00    -0.002 C 
HETATM    2  C10 UNL     1      -5.192  50.349 -24.475  1.00  0.00     0.006 C 
HETATM    3  C11 UNL     1      -5.277  50.216 -22.948  1.00  0.00     0.011 C 
HETATM    4  C12 UNL     1      -3.879  50.607 -22.435  1.00  0.00    -0.032 C 
HETATM    5  C13 UNL     1      -3.846  52.168 -22.388  1.00  0.00     0.016 C 
HETATM    6  C14 UNL     1      -3.518  50.013 -21.049  1.00  0.00     0.004 C 
HETATM    7  C15 UNL     1      -4.339  50.597 -19.889  1.00  0.00     0.007 C 
HETATM    8  C16 UNL     1      -3.983  49.881 -18.592  1.00  0.00     0.007 C 
HETATM    9  C17 UNL     1      -2.557  50.255 -18.157  1.00  0.00     0.018 C 
HETATM   10  C18 UNL     1      -2.082  49.559 -16.831  1.00  0.00     0.072 C 
HETATM   11  C19 UNL     1      -2.370  48.041 -16.815  1.00  0.00     0.030 C 
HETATM   12  C21 UNL     1      -0.569  49.839 -16.552  1.00  0.00     0.139 C 
HETATM   13  C22 UNL     1      -0.032  50.998 -17.378  1.00  0.00     0.065 C 
HETATM   14  C23 UNL     1      -0.173  50.761 -18.890  1.00  0.00     0.130 C 
HETATM   15  C24 UNL     1      -1.514  50.120 -19.277  1.00  0.00    -0.001 A 
HETATM   16  C25 UNL     1      -1.436  48.830 -20.065  1.00  0.00     0.024 A 
HETATM   17  C26 UNL     1      -1.992  50.051 -20.768  1.00  0.00    -0.025 A 
HETATM   18  C27 UNL     1      -1.101  50.665 -21.861  1.00  0.00     0.011 C 
HETATM   19  C28 UNL     1      -1.526  50.479 -23.333  1.00  0.00     0.011 C 
HETATM   20  C29 UNL     1      -2.957  49.954 -23.531  1.00  0.00    -0.032 C 
HETATM   21  C30 UNL     1      -2.883  48.405 -23.451  1.00  0.00     0.016 C 
ENDROOT
BRANCH   1  22
HETATM   22  C7  UNL     1      -3.378  49.766 -26.240  1.00  0.00    -0.014 C 
HETATM   23  C8  UNL     1      -4.028  48.403 -26.515  1.00  0.00     0.010 C 
BRANCH  22  24
HETATM   24  C6  UNL     1      -1.858  49.755 -26.536  1.00  0.00     0.008 C 
BRANCH  24  25
HETATM   25  C5  UNL     1      -1.284  51.077 -27.072  1.00  0.00     0.028 C 
BRANCH  25  26
HETATM   26  C4  UNL     1       0.207  51.083 -27.253  1.00  0.00    -0.025 C 
HETATM   27  C2  UNL     1       1.142  51.652 -26.463  1.00  0.00    -0.091 C 
HETATM   28  C1  UNL     1       2.601  51.553 -26.816  1.00  0.00     0.042 C 
HETATM   29  C3  UNL     1       0.867  52.442 -25.207  1.00  0.00     0.042 C 
ENDBRANCH  25  26
ENDBRANCH  24  25
ENDBRANCH  22  24
ENDBRANCH   1  22
BRANCH  14  30
HETATM   30  O4  UNL     1      -0.053  52.041 -19.517  1.00  0.00    -0.395 OA
HETATM   31  H39 UNL     1       0.872  52.321 -19.411  1.00  0.00     0.210 HD
ENDBRANCH  14  30
BRANCH  10  32
HETATM   32  C20 UNL     1      -2.869  50.171 -15.668  1.00  0.00     0.151 C 
HETATM   33  O1  UNL     1      -3.230  51.331 -15.563  1.00  0.00    -0.649 OA
BRANCH  32  34
HETATM   34  O2  UNL     1      -3.184  49.293 -14.698  1.00  0.00    -0.776 OA
HETATM   35  H33 UNL     1      -3.646  49.834 -14.022  1.00  0.00     0.167 HD
ENDBRANCH  32  34
ENDBRANCH  10  32
BRANCH  12  36
HETATM   36  O3  UNL     1       0.267  48.703 -16.814  1.00  0.00    -0.394 OA
HETATM   37  H35 UNL     1       0.171  48.084 -16.065  1.00  0.00     0.210 HD
ENDBRANCH  12  36
TORSDOF 8
ENDMDL
