MODEL 1
REMARK minimizedAffinity -7.65819836
REMARK CNNscore 0.467106164
REMARK CNNaffinity 6.43625259
REMARK  6 active torsions:
REMARK  status: ('A' for Active; 'I' for Inactive)
REMARK    1  A    between atoms: C2_2  and  C30_32 
REMARK    2  A    between atoms: C3_3  and  C4_4 
REMARK    3  A    between atoms: C4_4  and  C5_6 
REMARK    4  A    between atoms: C5_6  and  C6_7 
REMARK    5  A    between atoms: C6_7  and  C8_9 
REMARK    6  A    between atoms: C30_32  and  O4_34 
ROOT
HETATM    1  C8  UNL     1      -0.901  11.709  17.658  1.00  0.00    -0.001 C 
HETATM    2  C9  UNL     1      -1.632  10.478  18.220  1.00  0.00     0.007 C 
HETATM    3  C10 UNL     1      -1.962   9.567  17.022  1.00  0.00     0.015 C 
HETATM    4  C11 UNL     1      -1.509  10.322  15.741  1.00  0.00    -0.013 C 
HETATM    5  C12 UNL     1      -2.738  11.164  15.281  1.00  0.00     0.021 C 
HETATM    6  C13 UNL     1      -0.997   9.391  14.614  1.00  0.00    -0.070 C 
HETATM    7  C14 UNL     1      -1.483   9.396  13.361  1.00  0.00    -0.022 C 
HETATM    8  C15 UNL     1      -0.915   8.637  12.208  1.00  0.00     0.034 C 
HETATM    9  C16 UNL     1       0.470   7.958  12.420  1.00  0.00     0.013 C 
HETATM   10  C17 UNL     1       0.705   6.892  11.281  1.00  0.00     0.018 C 
HETATM   11  C18 UNL     1       2.167   6.416  11.170  1.00  0.00     0.023 C 
HETATM   12  C19 UNL     1       0.349   7.481   9.892  1.00  0.00     0.023 C 
HETATM   13  C20 UNL     1      -0.190   5.672  11.558  1.00  0.00     0.135 C 
HETATM   14  O2  UNL     1      -0.776   5.075  10.652  1.00  0.00    -0.297 OA
HETATM   15  C21 UNL     1      -0.252   5.137  12.976  1.00  0.00     0.080 C 
HETATM   16  C22 UNL     1      -0.423   6.231  14.029  1.00  0.00     0.017 C 
HETATM   17  C23 UNL     1       0.583   7.412  13.882  1.00  0.00    -0.031 C 
HETATM   18  C24 UNL     1       1.993   6.880  14.239  1.00  0.00     0.016 C 
HETATM   19  C25 UNL     1       0.226   8.545  14.937  1.00  0.00     0.024 C 
HETATM   20  C26 UNL     1       1.353   9.554  15.238  1.00  0.00     0.010 C 
HETATM   21  C27 UNL     1       0.977  10.404  16.458  1.00  0.00     0.011 C 
HETATM   22  C28 UNL     1      -0.328  11.226  16.285  1.00  0.00    -0.029 C 
HETATM   23  C29 UNL     1      -0.021  12.429  15.368  1.00  0.00     0.016 C 
ENDROOT
BRANCH   1  24
HETATM   24  C6  UNL     1       0.045  12.463  18.639  1.00  0.00    -0.007 C 
HETATM   25  C7  UNL     1      -0.558  13.847  18.951  1.00  0.00     0.011 C 
BRANCH  24  26
HETATM   26  C5  UNL     1       0.345  11.752  19.974  1.00  0.00     0.087 C 
BRANCH  26  27
HETATM   27  C4  UNL     1       1.759  11.191  20.054  1.00  0.00     0.150 C 
HETATM   28  O1  UNL     1       2.644  11.490  19.258  1.00  0.00    -0.293 OA
BRANCH  27  29
HETATM   29  C3  UNL     1       2.000  10.197  21.139  1.00  0.00     0.063 C 
HETATM   30  C2  UNL     1       2.669  10.451  22.279  1.00  0.00     0.015 C 
HETATM   31  C1  UNL     1       3.230  11.768  22.720  1.00  0.00     0.055 C 
BRANCH  30  32
HETATM   32  C30 UNL     1       2.822   9.287  23.183  1.00  0.00     0.171 C 
HETATM   33  O3  UNL     1       2.753   8.112  22.865  1.00  0.00    -0.646 OA
BRANCH  32  34
HETATM   34  O4  UNL     1       3.067   9.649  24.451  1.00  0.00    -0.773 OA
HETATM   35  H44 UNL     1       3.165   8.798  24.927  1.00  0.00     0.167 HD
ENDBRANCH  32  34
ENDBRANCH  30  32
ENDBRANCH  27  29
ENDBRANCH  26  27
ENDBRANCH  24  26
ENDBRANCH   1  24
TORSDOF 6
ENDMDL
