MODEL 1
REMARK minimizedAffinity -9.48305511
REMARK  6 active torsions:
REMARK  status: ('A' for Active; 'I' for Inactive)
REMARK    1  A    between atoms: C3_3  and  C4_4 
REMARK    2  A    between atoms: C4_4  and  O2_6 
REMARK    3  A    between atoms: O2_6  and  C5_7 
REMARK    4  A    between atoms: C5_7  and  C6_8 
REMARK    5  A    between atoms: C6_8  and  C7_9 
REMARK    6  A    between atoms: C13_15  and  C14_16 
ROOT
HETATM    1  C1  UNL     1       2.282   5.576  10.063  1.00  0.00     0.069 C 
HETATM    2  C2  UNL     1       1.838   6.061  11.419  1.00  0.00     0.018 C 
HETATM    3  C3  UNL     1       0.811   5.535  12.125  1.00  0.00     0.052 C 
HETATM    4  C13 UNL     1       0.399   6.079  13.490  1.00  0.00     0.104 C 
HETATM    5  C23 UNL     1       1.416   7.088  14.026  1.00  0.00     0.024 C 
HETATM    6  C24 UNL     1       2.428   7.553  13.263  1.00  0.00     0.020 C 
HETATM    7  C25 UNL     1       3.456   8.536  13.768  1.00  0.00     0.058 C 
HETATM    8  C26 UNL     1       3.558   8.536  15.288  1.00  0.00     0.014 C 
HETATM    9  C27 UNL     1       2.185   8.651  15.928  1.00  0.00     0.084 C 
HETATM   10  C28 UNL     1       1.260   7.564  15.429  1.00  0.00     0.158 C 
HETATM   11  O5  UNL     1       0.357   7.125  16.140  1.00  0.00    -0.293 OA
HETATM   12  N1  UNL     1       2.578   7.101  11.964  1.00  0.00    -0.362 N 
HETATM   13  H24 UNL     1       3.398   7.409  11.445  1.00  0.00     0.165 HD
ENDROOT
BRANCH   4  14
HETATM   14  C14 UNL     1      -1.000   6.674  13.415  1.00  0.00     0.029 A 
HETATM   15  C15 UNL     1      -1.380   7.677  12.608  1.00  0.00     0.154 A 
HETATM   16  O3  UNL     1      -2.625   8.253  12.535  1.00  0.00    -0.321 OA
HETATM   17  C16 UNL     1      -3.583   7.806  13.408  1.00  0.00     0.089 A 
HETATM   18  C17 UNL     1      -4.828   8.434  13.370  1.00  0.00     0.040 A 
HETATM   19  C21 UNL     1      -3.357   6.760  14.303  1.00  0.00     0.050 A 
HETATM   20  C18 UNL     1      -5.844   8.012  14.231  1.00  0.00     0.026 A 
HETATM   21  C19 UNL     1      -5.611   6.964  15.125  1.00  0.00     0.035 A 
HETATM   22 CL1  UNL     1      -6.869   6.448  16.180  1.00  0.00    -0.084 Cl
HETATM   23  C20 UNL     1      -4.370   6.332  15.167  1.00  0.00     0.042 A 
HETATM   24  C22 UNL     1      -2.039   6.105  14.311  1.00  0.00     0.194 A 
HETATM   25  O4  UNL     1      -1.837   5.120  15.007  1.00  0.00    -0.287 OA
ENDBRANCH   4  14
BRANCH   3  26
HETATM   26  C4  UNL     1       0.018   4.410  11.595  1.00  0.00     0.292 C 
HETATM   27  O1  UNL     1       0.365   3.243  11.655  1.00  0.00    -0.259 OA
BRANCH  26  28
HETATM   28  O2  UNL     1      -1.120   4.901  11.049  1.00  0.00    -0.317 OA
BRANCH  28  29
HETATM   29  C5  UNL     1      -2.160   3.931  10.861  1.00  0.00     0.183 C 
BRANCH  29  30
HETATM   30  C6  UNL     1      -2.739   3.581  12.230  1.00  0.00     0.065 C 
BRANCH  30  31
HETATM   31  C7  UNL     1      -4.160   3.088  12.137  1.00  0.00    -0.056 A 
HETATM   32  C8  UNL     1      -5.206   3.832  12.701  1.00  0.00     0.007 A 
HETATM   33  C9  UNL     1      -6.525   3.388  12.599  1.00  0.00     0.001 A 
HETATM   34  C10 UNL     1      -6.810   2.197  11.932  1.00  0.00     0.000 A 
HETATM   35  C11 UNL     1      -5.777   1.449  11.370  1.00  0.00     0.001 A 
HETATM   36  C12 UNL     1      -4.457   1.893  11.469  1.00  0.00     0.007 A 
ENDBRANCH  30  31
ENDBRANCH  29  30
ENDBRANCH  28  29
ENDBRANCH  26  28
ENDBRANCH   3  26
TORSDOF 6
ENDMDL
