MODEL 1
REMARK minimizedAffinity -7.6841116
REMARK  8 active torsions:
REMARK  status: ('A' for Active; 'I' for Inactive)
REMARK    1  A    between atoms: C4_4  and  C5_5 
REMARK    2  A    between atoms: C5_5  and  C6_6 
REMARK    3  A    between atoms: C6_6  and  C7_7 
REMARK    4  A    between atoms: C9_9  and  C10_10 
REMARK    5  A    between atoms: C11_11  and  C12_12 
REMARK    6  A    between atoms: C14_14  and  C15_15 
REMARK    7  A    between atoms: C24_25  and  C26_27 
REMARK    8  A    between atoms: C29_31  and  O3_33 
ROOT
HETATM    1  C15 UNL     1      15.513  -5.052   8.844  1.00  0.00     0.149 C 
HETATM    2  C16 UNL     1      15.434  -5.128   7.324  1.00  0.00     0.054 C 
HETATM    3  C17 UNL     1      14.217  -6.065   7.023  1.00  0.00     0.050 C 
HETATM    4  C18 UNL     1      13.694  -6.349   8.466  1.00  0.00     0.272 C 
HETATM    5  O1  UNL     1      12.312  -6.603   8.659  1.00  0.00    -0.360 OA
HETATM    6  C19 UNL     1      11.448  -5.502   8.469  1.00  0.00     0.171 C 
HETATM    7  C20 UNL     1      10.840  -5.533   7.076  1.00  0.00     0.027 C 
HETATM    8  C21 UNL     1      11.819  -5.887   5.957  1.00  0.00     0.012 C 
HETATM    9  C22 UNL     1      13.210  -5.242   6.133  1.00  0.00     0.032 C 
HETATM   10  C23 UNL     1      13.821  -4.897   4.758  1.00  0.00    -0.066 C 
HETATM   11  C24 UNL     1      13.555  -3.757   4.068  1.00  0.00    -0.021 C 
HETATM   12  C25 UNL     1      14.219  -3.339   2.781  1.00  0.00     0.052 C 
HETATM   13  C27 UNL     1      14.814  -5.916   4.229  1.00  0.00     0.038 C 
HETATM   14  C28 UNL     1      14.550  -7.317   4.760  1.00  0.00     0.042 C 
HETATM   15  C29 UNL     1      14.619  -7.415   6.299  1.00  0.00     0.067 C 
HETATM   16  C30 UNL     1      15.993  -7.973   6.719  1.00  0.00     0.047 C 
HETATM   17  O4  UNL     1      14.180  -5.279   9.295  1.00  0.00    -0.351 OA
ENDROOT
BRANCH   1  18
HETATM   18  C14 UNL     1      16.103  -3.777   9.377  1.00  0.00     0.011 C 
HETATM   19  C12 UNL     1      17.320  -3.227   9.176  1.00  0.00    -0.063 C 
HETATM   20  C13 UNL     1      18.413  -3.883   8.373  1.00  0.00     0.048 C 
BRANCH  19  21
HETATM   21  C11 UNL     1      17.608  -1.927   9.787  1.00  0.00     0.006 C 
HETATM   22  C10 UNL     1      16.997  -0.761   9.514  1.00  0.00     0.001 C 
BRANCH  22  23
HETATM   23  C9  UNL     1      17.344   0.478  10.182  1.00  0.00     0.002 C 
HETATM   24  C7  UNL     1      16.547   1.237  10.963  1.00  0.00    -0.084 C 
HETATM   25  C8  UNL     1      15.100   0.929  11.275  1.00  0.00     0.043 C 
BRANCH  24  26
HETATM   26  C6  UNL     1      17.013   2.524  11.639  1.00  0.00     0.037 C 
BRANCH  26  27
HETATM   27  C5  UNL     1      16.915   2.613  13.169  1.00  0.00     0.031 C 
BRANCH  27  28
HETATM   28  C4  UNL     1      18.171   2.107  13.830  1.00  0.00    -0.024 C 
HETATM   29  C2  UNL     1      18.905   2.718  14.780  1.00  0.00    -0.091 C 
HETATM   30  C1  UNL     1      20.122   2.047  15.360  1.00  0.00     0.042 C 
HETATM   31  C3  UNL     1      18.625   4.085  15.343  1.00  0.00     0.042 C 
ENDBRANCH  27  28
ENDBRANCH  26  27
ENDBRANCH  24  26
ENDBRANCH  22  23
ENDBRANCH  19  21
ENDBRANCH   1  18
BRANCH  15  32
HETATM   32  O3  UNL     1      13.681  -8.439   6.670  1.00  0.00    -0.389 OA
HETATM   33  H44 UNL     1      13.882  -9.252   6.174  1.00  0.00     0.210 HD
ENDBRANCH  15  32
BRANCH  11  34
HETATM   34  C26 UNL     1      12.541  -2.759   4.538  1.00  0.00     0.265 C 
HETATM   35  O2  UNL     1      12.020  -1.940   3.787  1.00  0.00    -0.302 OA
ENDBRANCH  11  34
TORSDOF 8
ENDMDL
