MODEL 1
REMARK minimizedAffinity -7.61735487
REMARK CNNscore 0.666491985
REMARK CNNaffinity 7.36085558
REMARK  12 active torsions:
REMARK  status: ('A' for Active; 'I' for Inactive)
REMARK    1  A    between atoms: C4_4  and  C5_5 
REMARK    2  A    between atoms: C5_5  and  O1_6 
REMARK    3  A    between atoms: C5_5  and  C6_7 
REMARK    4  A    between atoms: C6_7  and  C7_8 
REMARK    5  A    between atoms: C9_11  and  C10_12 
REMARK    6  A    between atoms: C18_20  and  O3_21 
REMARK    7  A    between atoms: O3_21  and  C19_22 
REMARK    8  A    between atoms: C20_24  and  C21_25 
REMARK    9  A    between atoms: C21_25  and  O5_26 
REMARK   10  A    between atoms: C22_27  and  O6_28 
REMARK   11  A    between atoms: C23_29  and  O7_30 
REMARK   12  A    between atoms: C24_31  and  O8_32 
ROOT
HETATM    1  C10 UNL     1       4.468  56.212  -7.397  1.00  0.00     0.029 C 
HETATM    2  C11 UNL     1       3.995  56.886  -8.707  1.00  0.00     0.009 C 
HETATM    3  C12 UNL     1       2.521  56.670  -9.061  1.00  0.00     0.007 C 
HETATM    4  C13 UNL     1       1.938  55.465  -8.317  1.00  0.00     0.003 C 
HETATM    5  C14 UNL     1       0.647  54.798  -8.958  1.00  0.00    -0.035 C 
HETATM    6  C15 UNL     1      -0.543  55.779  -8.997  1.00  0.00     0.016 C 
HETATM    7  C16 UNL     1       0.957  54.385 -10.430  1.00  0.00     0.012 C 
HETATM    8  C17 UNL     1      -0.083  53.459 -11.060  1.00  0.00     0.034 C 
HETATM    9  C18 UNL     1      -0.332  52.197 -10.236  1.00  0.00     0.133 C 
HETATM   10  C25 UNL     1      -0.707  52.508  -8.749  1.00  0.00    -0.017 C 
HETATM   11  C26 UNL     1      -0.692  51.154  -7.984  1.00  0.00     0.018 C 
HETATM   12  C27 UNL     1      -2.148  53.047  -8.629  1.00  0.00     0.018 C 
HETATM   13  C28 UNL     1       0.385  53.469  -8.152  1.00  0.00     0.004 C 
HETATM   14  C29 UNL     1       0.270  53.733  -6.640  1.00  0.00     0.007 C 
HETATM   15  C30 UNL     1       1.528  54.409  -6.073  1.00  0.00     0.011 C 
HETATM   16  C31 UNL     1       1.911  55.752  -6.759  1.00  0.00    -0.029 C 
HETATM   17  C32 UNL     1       0.814  56.770  -6.356  1.00  0.00     0.016 C 
HETATM   18  C33 UNL     1       3.359  56.318  -6.263  1.00  0.00     0.004 C 
HETATM   19  C34 UNL     1       3.860  55.696  -4.945  1.00  0.00     0.190 C 
HETATM   20  O9  UNL     1       4.862  56.582  -4.441  1.00  0.00    -0.321 OA
HETATM   21  C35 UNL     1       4.568  57.842  -4.867  1.00  0.00     0.259 C 
HETATM   22  O10 UNL     1       5.171  58.845  -4.527  1.00  0.00    -0.265 OA
HETATM   23  C36 UNL     1       3.375  57.796  -5.779  1.00  0.00     0.124 C 
ENDROOT
BRANCH   9  24
HETATM   24  O3  UNL     1      -1.398  51.448 -10.834  1.00  0.00    -0.352 OA
BRANCH  24  25
HETATM   25  C19 UNL     1      -2.446  52.244 -11.387  1.00  0.00     0.292 C 
HETATM   26  O4  UNL     1      -3.681  52.028 -10.699  1.00  0.00    -0.348 OA
HETATM   27  C20 UNL     1      -4.523  51.004 -11.254  1.00  0.00     0.179 C 
HETATM   28  C22 UNL     1      -3.716  49.930 -11.992  1.00  0.00     0.180 C 
HETATM   29  C23 UNL     1      -3.094  50.584 -13.230  1.00  0.00     0.183 C 
HETATM   30  C24 UNL     1      -2.518  51.976 -12.915  1.00  0.00     0.204 C 
BRANCH  27  31
HETATM   31  C21 UNL     1      -5.425  50.436 -10.148  1.00  0.00     0.198 C 
BRANCH  31  32
HETATM   32  O5  UNL     1      -6.671  49.966 -10.667  1.00  0.00    -0.398 OA
HETATM   33  H34 UNL     1      -7.165  49.601  -9.910  1.00  0.00     0.209 HD
ENDBRANCH  31  32
ENDBRANCH  27  31
BRANCH  28  34
HETATM   34  O6  UNL     1      -4.519  48.816 -12.406  1.00  0.00    -0.390 OA
HETATM   35  H36 UNL     1      -4.706  48.321 -11.585  1.00  0.00     0.210 HD
ENDBRANCH  28  34
BRANCH  29  36
HETATM   36  O7  UNL     1      -2.084  49.716 -13.767  1.00  0.00    -0.390 OA
HETATM   37  H38 UNL     1      -2.512  48.842 -13.852  1.00  0.00     0.210 HD
ENDBRANCH  29  36
BRANCH  30  38
HETATM   38  O8  UNL     1      -3.357  52.967 -13.546  1.00  0.00    -0.388 OA
HETATM   39  H40 UNL     1      -2.900  53.821 -13.469  1.00  0.00     0.210 HD
ENDBRANCH  30  38
ENDBRANCH  24  25
ENDBRANCH   9  24
BRANCH   1  40
HETATM   40  C9  UNL     1       4.983  54.793  -7.595  1.00  0.00     0.162 A 
HETATM   41  C7  UNL     1       6.450  54.368  -7.409  1.00  0.00     0.087 A 
HETATM   42  C8  UNL     1       6.692  52.925  -7.077  1.00  0.00     0.049 C 
HETATM   43  O2  UNL     1       5.873  54.581  -8.701  1.00  0.00    -0.369 OA
BRANCH  41  44
HETATM   44  C6  UNL     1       7.553  55.352  -7.081  1.00  0.00     0.076 C 
BRANCH  44  45
HETATM   45  C5  UNL     1       7.708  55.663  -5.580  1.00  0.00     0.144 C 
BRANCH  45  46
HETATM   46  C4  UNL     1       8.353  56.992  -5.270  1.00  0.00     0.006 C 
HETATM   47  C2  UNL     1       9.660  57.290  -5.114  1.00  0.00    -0.089 C 
HETATM   48  C1  UNL     1      10.092  58.693  -4.774  1.00  0.00     0.042 C 
HETATM   49  C3  UNL     1      10.798  56.317  -5.271  1.00  0.00     0.042 C 
ENDBRANCH  45  46
BRANCH  45  50
HETATM   50  O1  UNL     1       8.464  54.618  -4.963  1.00  0.00    -0.392 OA
HETATM   51  H9  UNL     1       8.736  54.946  -4.089  1.00  0.00     0.210 HD
ENDBRANCH  45  50
ENDBRANCH  44  45
ENDBRANCH  41  44
ENDBRANCH   1  40
TORSDOF 12
ENDMDL
