MODEL 1
REMARK minimizedAffinity -9.97488785
REMARK CNNscore 0.600101769
REMARK CNNaffinity 7.1667428
REMARK  7 active torsions:
REMARK  status: ('A' for Active; 'I' for Inactive)
REMARK    1  A    between atoms: C5_5  and  C6_6 
REMARK    2  A    between atoms: C8_8  and  O1_9 
REMARK    3  A    between atoms: C10_11  and  C11_12 
REMARK    4  A    between atoms: C11_12  and  O2_13 
REMARK    5  A    between atoms: C20_24  and  O5_25 
REMARK    6  A    between atoms: C25_30  and  C26_31 
REMARK    7  A    between atoms: C26_31  and  O6_32 
ROOT
HETATM    1  C1  UNL     1      -3.448  46.148 -21.426  1.00  0.00     0.036 C 
HETATM    2  C2  UNL     1      -4.064  46.963 -20.334  1.00  0.00    -0.018 C 
HETATM    3  C3  UNL     1      -3.656  48.162 -19.860  1.00  0.00     0.015 C 
HETATM    4  C4  UNL     1      -4.422  48.880 -18.770  1.00  0.00     0.066 C 
HETATM    5  C5  UNL     1      -4.023  48.575 -17.298  1.00  0.00     0.102 C 
HETATM    6  C13 UNL     1      -2.865  49.385 -16.864  1.00  0.00    -0.096 C 
HETATM    7  C14 UNL     1      -1.975  50.132 -16.552  1.00  0.00    -0.096 C 
HETATM    8  C15 UNL     1      -0.908  51.130 -16.311  1.00  0.00     0.110 C 
HETATM    9  C16 UNL     1       0.242  50.481 -15.559  1.00  0.00     0.133 C 
HETATM   10  C17 UNL     1       1.393  51.434 -15.430  1.00  0.00     0.265 C 
HETATM   11  O3  UNL     1       1.995  51.604 -14.374  1.00  0.00    -0.265 OA
HETATM   12  O4  UNL     1       1.796  52.047 -16.609  1.00  0.00    -0.278 OA
HETATM   13  C18 UNL     1       0.932  52.102 -17.714  1.00  0.00     0.089 A 
HETATM   14  C19 UNL     1       1.452  52.594 -18.908  1.00  0.00     0.075 A 
HETATM   15  C20 UNL     1       0.623  52.691 -20.023  1.00  0.00     0.074 A 
HETATM   16  C21 UNL     1      -0.725  52.326 -19.954  1.00  0.00    -0.022 A 
HETATM   17  C22 UNL     1      -1.231  51.889 -18.720  1.00  0.00     0.021 A 
HETATM   18  C23 UNL     1      -0.400  51.716 -17.606  1.00  0.00    -0.007 A 
HETATM   19  C24 UNL     1      -1.632  52.216 -21.164  1.00  0.00     0.077 C 
HETATM   20  C25 UNL     1      -1.730  50.744 -21.626  1.00  0.00     0.171 C 
HETATM   21  O8  UNL     1      -2.732  50.084 -20.803  1.00  0.00    -0.309 OA
HETATM   22  C36 UNL     1      -2.456  48.798 -20.461  1.00  0.00     0.289 C 
HETATM   23  O9  UNL     1      -1.411  48.210 -20.692  1.00  0.00    -0.260 OA
ENDROOT
BRANCH  20  24
HETATM   24  C26 UNL     1      -2.091  50.557 -23.146  1.00  0.00     0.089 C 
HETATM   25  C27 UNL     1      -2.360  49.068 -23.448  1.00  0.00     0.041 C 
HETATM   26  C28 UNL     1      -2.904  48.843 -24.862  1.00  0.00     0.004 C 
HETATM   27  C29 UNL     1      -2.317  49.803 -25.897  1.00  0.00     0.005 C 
HETATM   28  C30 UNL     1      -0.945  50.347 -25.483  1.00  0.00    -0.001 C 
HETATM   29  C31 UNL     1      -0.339  51.169 -26.631  1.00  0.00     0.083 C 
HETATM   30  C35 UNL     1      -1.006  51.121 -24.123  1.00  0.00     0.027 C 
HETATM   31  C32 UNL     1       0.646  52.177 -26.097  1.00  0.00     0.127 C 
HETATM   32  O7  UNL     1       1.814  52.216 -26.481  1.00  0.00    -0.298 OA
HETATM   33  C33 UNL     1       0.109  53.181 -25.106  1.00  0.00     0.079 C 
HETATM   34  C34 UNL     1      -1.127  52.638 -24.390  1.00  0.00     0.015 C 
BRANCH  24  35
HETATM   35  O6  UNL     1      -3.323  51.251 -23.411  1.00  0.00    -0.387 OA
HETATM   36  H24 UNL     1      -3.947  51.070 -22.678  1.00  0.00     0.210 HD
ENDBRANCH  24  35
ENDBRANCH  20  24
BRANCH  15  37
HETATM   37  O5  UNL     1       1.201  53.135 -21.175  1.00  0.00    -0.360 OA
HETATM   38  H19 UNL     1       0.573  53.716 -21.632  1.00  0.00     0.217 HD
ENDBRANCH  15  37
BRANCH   5  39
HETATM   39  C6  UNL     1      -3.904  47.090 -16.994  1.00  0.00    -0.039 A 
HETATM   40  C7  UNL     1      -4.895  46.168 -17.365  1.00  0.00     0.045 A 
HETATM   41  C8  UNL     1      -4.768  44.825 -17.018  1.00  0.00     0.066 A 
HETATM   42  C9  UNL     1      -3.677  44.371 -16.287  1.00  0.00     0.045 A 
HETATM   43  C10 UNL     1      -2.688  45.277 -15.883  1.00  0.00    -0.032 A 
HETATM   44  C12 UNL     1      -2.799  46.625 -16.259  1.00  0.00     0.018 A 
BRANCH  41  45
HETATM   45  O1  UNL     1      -5.753  43.974 -17.424  1.00  0.00    -0.361 OA
HETATM   46  H9  UNL     1      -5.551  43.078 -17.112  1.00  0.00     0.217 HD
ENDBRANCH  41  45
BRANCH  43  47
HETATM   47  C11 UNL     1      -1.490  44.808 -15.101  1.00  0.00     0.203 C 
BRANCH  47  48
HETATM   48  O2  UNL     1      -0.834  43.746 -15.776  1.00  0.00    -0.396 OA
HETATM   49  H13 UNL     1      -1.339  43.538 -16.582  1.00  0.00     0.209 HD
ENDBRANCH  47  48
ENDBRANCH  43  47
ENDBRANCH   5  39
TORSDOF 7
ENDMDL
