MODEL 1
REMARK minimizedAffinity -7.69619179
REMARK CNNscore 0.319532424
REMARK CNNaffinity 6.59396172
REMARK  6 active torsions:
REMARK  status: ('A' for Active; 'I' for Inactive)
REMARK    1  A    between atoms: C3_3  and  C4_4 
REMARK    2  A    between atoms: C4_4  and  O1_5 
REMARK    3  A    between atoms: C7_9  and  O3_10 
REMARK    4  A    between atoms: C24_28  and  C25_29 
REMARK    5  A    between atoms: C43_49  and  O7_51 
REMARK    6  A    between atoms: C45_52  and  O8_53 
ROOT
HETATM    1  C1  UNL     1     -14.261  -7.337  16.431  1.00  0.00     0.013 C 
HETATM    2  C2  UNL     1     -15.557  -7.876  17.020  1.00  0.00     0.023 C 
HETATM    3  C3  UNL     1     -16.121  -7.034  18.188  1.00  0.00     0.047 C 
HETATM    4  C5  UNL     1     -16.593  -8.093  19.203  1.00  0.00     0.160 C 
HETATM    5  O2  UNL     1     -16.651  -9.327  18.462  1.00  0.00    -0.373 OA
HETATM    6  C6  UNL     1     -15.523  -9.313  17.550  1.00  0.00     0.167 C 
HETATM    7  C7  UNL     1     -14.249  -9.843  18.278  1.00  0.00     0.226 C 
HETATM    8  C8  UNL     1     -14.646 -10.912  19.218  1.00  0.00    -0.072 C 
HETATM    9  C9  UNL     1     -15.149 -11.591  20.073  1.00  0.00    -0.103 C 
HETATM   10  C10 UNL     1     -15.863 -12.263  21.170  1.00  0.00     0.100 C 
HETATM   11  C11 UNL     1     -15.600 -11.547  22.512  1.00  0.00     0.014 C 
HETATM   12  C12 UNL     1     -15.337 -12.602  23.664  1.00  0.00     0.000 C 
HETATM   13  C13 UNL     1     -16.595 -13.395  24.036  1.00  0.00     0.006 C 
HETATM   14  C14 UNL     1     -17.892 -12.812  23.516  1.00  0.00     0.001 C 
HETATM   15  C15 UNL     1     -17.970 -11.286  23.450  1.00  0.00     0.014 C 
HETATM   16  C16 UNL     1     -16.674 -10.506  23.038  1.00  0.00     0.006 C 
HETATM   17  C17 UNL     1     -16.997  -9.214  22.142  1.00  0.00     0.034 C 
HETATM   18  C18 UNL     1     -17.131  -8.028  23.146  1.00  0.00     0.012 C 
HETATM   19  C19 UNL     1     -16.946  -8.603  24.544  1.00  0.00     0.044 C 
HETATM   20  C20 UNL     1     -15.974  -9.762  24.300  1.00  0.00     0.094 C 
HETATM   21  O4  UNL     1     -14.686  -9.227  23.886  1.00  0.00    -0.363 OA
HETATM   22  C21 UNL     1     -14.090  -8.128  24.591  1.00  0.00     0.263 C 
HETATM   23  C22 UNL     1     -13.962  -8.281  26.048  1.00  0.00    -0.080 C 
HETATM   24  C23 UNL     1     -13.865  -8.351  27.246  1.00  0.00    -0.093 C 
HETATM   25  C24 UNL     1     -13.782  -8.457  28.730  1.00  0.00     0.121 C 
HETATM   26  C31 UNL     1     -13.014  -9.728  29.163  1.00  0.00     0.190 C 
HETATM   27  O5  UNL     1     -13.819 -10.869  28.858  1.00  0.00    -0.384 OA
HETATM   28  C32 UNL     1     -13.176 -12.142  28.898  1.00  0.00     0.122 C 
HETATM   29  C33 UNL     1     -12.129 -12.293  27.802  1.00  0.00     0.033 C 
HETATM   30  C34 UNL     1     -12.741 -11.937  26.454  1.00  0.00     0.013 C 
HETATM   31  C35 UNL     1     -14.051 -12.715  26.069  1.00  0.00    -0.025 C 
HETATM   32  C36 UNL     1     -13.586 -14.110  25.574  1.00  0.00     0.016 C 
HETATM   33  C37 UNL     1     -14.713 -11.878  24.897  1.00  0.00     0.031 C 
HETATM   34  C38 UNL     1     -15.680 -10.795  25.363  1.00  0.00    -0.036 C 
HETATM   35  C39 UNL     1     -16.268 -10.788  26.563  1.00  0.00     0.057 C 
HETATM   36  C40 UNL     1     -16.068 -11.870  27.537  1.00  0.00     0.154 C 
HETATM   37  O6  UNL     1     -16.838 -11.911  28.498  1.00  0.00    -0.293 OA
HETATM   38  C41 UNL     1     -15.004 -12.939  27.296  1.00  0.00     0.071 C 
HETATM   39  C42 UNL     1     -14.258 -13.197  28.629  1.00  0.00     0.045 C 
HETATM   40  C43 UNL     1     -18.150  -9.135  21.063  1.00  0.00     0.087 C 
HETATM   41  C44 UNL     1     -19.552  -8.912  21.698  1.00  0.00     0.049 C 
HETATM   42  C45 UNL     1     -17.904  -7.949  20.006  1.00  0.00     0.181 C 
ENDROOT
BRANCH  25  43
HETATM   43  C25 UNL     1     -13.166  -7.214  29.352  1.00  0.00    -0.040 A 
HETATM   44  C26 UNL     1     -13.275  -5.950  28.746  1.00  0.00     0.008 A 
HETATM   45  C27 UNL     1     -12.681  -4.827  29.326  1.00  0.00     0.001 A 
HETATM   46  C28 UNL     1     -11.967  -4.954  30.517  1.00  0.00     0.000 A 
HETATM   47  C29 UNL     1     -11.853  -6.198  31.132  1.00  0.00     0.001 A 
HETATM   48  C30 UNL     1     -12.444  -7.323  30.550  1.00  0.00     0.008 A 
ENDBRANCH  25  43
BRANCH  40  49
HETATM   49  O7  UNL     1     -18.245 -10.380  20.370  1.00  0.00    -0.387 OA
HETATM   50  H54 UNL     1     -17.694 -10.313  19.560  1.00  0.00     0.210 HD
ENDBRANCH  40  49
BRANCH  42  51
HETATM   51  O8  UNL     1     -18.976  -7.884  19.044  1.00  0.00    -0.390 OA
HETATM   52  H56 UNL     1     -19.782  -8.267  19.434  1.00  0.00     0.210 HD
ENDBRANCH  42  51
BRANCH   7  53
HETATM   53  O3  UNL     1     -13.591  -8.815  19.030  1.00  0.00    -0.381 OA
HETATM   54  H12 UNL     1     -13.207  -9.244  19.813  1.00  0.00     0.211 HD
ENDBRANCH   7  53
BRANCH   3  55
HETATM   55  C4  UNL     1     -17.133  -5.984  17.731  1.00  0.00     0.172 C 
BRANCH  55  56
HETATM   56  O1  UNL     1     -16.793  -4.667  18.143  1.00  0.00    -0.400 OA
HETATM   57  H8  UNL     1     -15.903  -4.491  17.769  1.00  0.00     0.209 HD
ENDBRANCH  55  56
ENDBRANCH   3  55
TORSDOF 6
ENDMDL
