MODEL 1
REMARK minimizedAffinity -10.1445255
REMARK CNNscore 0.556770325
REMARK CNNaffinity 7.73162222
REMARK  12 active torsions:
REMARK  status: ('A' for Active; 'I' for Inactive)
REMARK    1  A    between atoms: C16_17  and  O2_18 
REMARK    2  A    between atoms: O2_18  and  C17_19 
REMARK    3  A    between atoms: C17_19  and  C18_21 
REMARK    4  A    between atoms: C18_21  and  C19_22 
REMARK    5  A    between atoms: C19_22  and  C20_23 
REMARK       I    between atoms: C20_23  and  N1_25 
REMARK    6  A    between atoms: N1_25  and  C21_26 
REMARK    7  A    between atoms: C21_26  and  C22_27 
REMARK       I    between atoms: C22_27  and  N2_29 
REMARK    8  A    between atoms: N2_29  and  C23_30 
REMARK    9  A    between atoms: C23_30  and  C24_31 
REMARK   10  A    between atoms: C23_30  and  C33_41 
REMARK   11  A    between atoms: C24_31  and  C25_32 
REMARK   12  A    between atoms: C33_41  and  O7_43 
ROOT
HETATM    1  C19 UNL     1      -5.933   3.145  11.567  1.00  0.00     0.112 C 
ENDROOT
BRANCH   1   2
HETATM    2  C18 UNL     1      -5.985   3.749  12.966  1.00  0.00     0.120 C 
BRANCH   2   3
HETATM    3  C17 UNL     1      -7.337   3.514  13.601  1.00  0.00     0.259 C 
HETATM    4  O3  UNL     1      -8.159   2.701  13.194  1.00  0.00    -0.265 OA
BRANCH   3   5
HETATM    5  O2  UNL     1      -7.456   4.288  14.713  1.00  0.00    -0.315 OA
BRANCH   5   6
HETATM    6  C16 UNL     1      -6.709   5.521  14.737  1.00  0.00     0.140 C 
HETATM    7  C14 UNL     1      -7.642   6.704  14.383  1.00  0.00    -0.013 C 
HETATM    8  C13 UNL     1      -8.613   6.529  13.195  1.00  0.00     0.012 C 
HETATM    9  C15 UNL     1      -6.741   7.930  14.063  1.00  0.00     0.018 C 
HETATM   10  C36 UNL     1      -8.422   6.811  15.712  1.00  0.00     0.001 C 
HETATM   11  C12 UNL     1     -10.114   6.504  13.533  1.00  0.00     0.007 C 
HETATM   12  C11 UNL     1     -10.614   7.360  14.736  1.00  0.00     0.002 C 
HETATM   13  C2  UNL     1     -11.712   8.441  14.429  1.00  0.00    -0.016 C 
HETATM   14  C10 UNL     1      -9.463   7.914  15.621  1.00  0.00    -0.004 C 
HETATM   15  C1  UNL     1     -11.176   9.534  13.484  1.00  0.00     0.020 C 
HETATM   16  C3  UNL     1     -12.932   7.738  13.760  1.00  0.00     0.022 C 
HETATM   17  C7  UNL     1     -12.148   9.087  15.758  1.00  0.00    -0.068 C 
HETATM   18  C4  UNL     1     -14.203   8.575  13.765  1.00  0.00     0.084 C 
HETATM   19  C5  UNL     1     -14.547   9.002  15.168  1.00  0.00     0.149 C 
HETATM   20  O1  UNL     1     -15.705   9.176  15.539  1.00  0.00    -0.293 OA
HETATM   21  C6  UNL     1     -13.432   9.292  16.098  1.00  0.00     0.053 C 
HETATM   22  C8  UNL     1     -11.055   9.491  16.729  1.00  0.00     0.035 C 
HETATM   23  C9  UNL     1     -10.028   8.381  16.961  1.00  0.00     0.010 C 
HETATM   24  C35 UNL     1      -7.334   6.808  16.771  1.00  0.00     0.008 C 
HETATM   25  C34 UNL     1      -6.305   5.803  16.210  1.00  0.00     0.034 C 
ENDBRANCH   5   6
ENDBRANCH   3   5
ENDBRANCH   2   3
ENDBRANCH   1   2
BRANCH   1  26
HETATM   26  C20 UNL     1      -4.600   2.476  11.313  1.00  0.00     0.218 C 
HETATM   27  O4  UNL     1      -4.378   1.293  11.555  1.00  0.00    -0.274 OA
HETATM   28  N1  UNL     1      -3.646   3.313  10.788  1.00  0.00    -0.352 N 
HETATM   29  H27 UNL     1      -3.799   4.314  10.827  1.00  0.00     0.162 HD
BRANCH  28  30
HETATM   30  C21 UNL     1      -2.290   2.850  10.541  1.00  0.00     0.225 C 
BRANCH  30  31
HETATM   31  C22 UNL     1      -1.292   3.460  11.530  1.00  0.00     0.236 C 
HETATM   32  O5  UNL     1      -0.293   2.852  11.910  1.00  0.00    -0.272 OA
HETATM   33  N2  UNL     1      -1.626   4.713  11.987  1.00  0.00    -0.345 N 
HETATM   34  H30 UNL     1      -2.466   5.169  11.624  1.00  0.00     0.163 HD
BRANCH  33  35
HETATM   35  C23 UNL     1      -0.755   5.475  12.885  1.00  0.00     0.186 C 
BRANCH  35  36
HETATM   36  C24 UNL     1      -0.455   6.870  12.319  1.00  0.00     0.077 C 
BRANCH  36  37
HETATM   37  C25 UNL     1       0.929   6.998  11.760  1.00  0.00    -0.028 A 
HETATM   38  C26 UNL     1       2.112   6.727  12.419  1.00  0.00     0.096 A 
HETATM   39  N3  UNL     1       3.149   6.976  11.560  1.00  0.00    -0.365 N 
HETATM   40  C27 UNL     1       2.670   7.409  10.346  1.00  0.00     0.042 A 
HETATM   41  H35 UNL     1       4.129   6.863  11.780  1.00  0.00     0.165 HD
HETATM   42  C28 UNL     1       3.356   7.780   9.183  1.00  0.00     0.030 A 
HETATM   43  C32 UNL     1       1.278   7.437  10.442  1.00  0.00    -0.002 A 
HETATM   44  C29 UNL     1       2.596   8.188   8.083  1.00  0.00     0.002 A 
HETATM   45  C30 UNL     1       1.205   8.226   8.147  1.00  0.00     0.001 A 
HETATM   46  C31 UNL     1       0.535   7.855   9.319  1.00  0.00     0.014 A 
ENDBRANCH  36  37
ENDBRANCH  35  36
BRANCH  35  47
HETATM   47  C33 UNL     1      -1.463   5.606  14.229  1.00  0.00     0.163 C 
HETATM   48  O6  UNL     1      -2.659   5.779  14.406  1.00  0.00    -0.648 OA
BRANCH  47  49
HETATM   49  O7  UNL     1      -0.636   5.499  15.290  1.00  0.00    -0.775 OA
HETATM   50  H40 UNL     1      -1.223   5.595  16.066  1.00  0.00     0.167 HD
ENDBRANCH  47  49
ENDBRANCH  35  47
ENDBRANCH  33  35
ENDBRANCH  30  31
ENDBRANCH  28  30
ENDBRANCH   1  26
TORSDOF 12
ENDMDL
