MODEL 1
REMARK minimizedAffinity -10.1140032
REMARK CNNscore 0.588098288
REMARK CNNaffinity 7.21680212
REMARK  5 active torsions:
REMARK  status: ('A' for Active; 'I' for Inactive)
REMARK    1  A    between atoms: C3_3  and  C4_4 
REMARK    2  A    between atoms: C4_4  and  C5_5 
REMARK       I    between atoms: C5_5  and  N1_7 
REMARK    3  A    between atoms: N1_7  and  C6_8 
REMARK    4  A    between atoms: C6_8  and  C7_9 
REMARK    5  A    between atoms: C7_9  and  C8_10 
ROOT
HETATM    1  C1  UNL     1      -2.981   4.859  13.788  1.00  0.00     0.050 C 
HETATM    2  C2  UNL     1      -4.246   4.375  13.127  1.00  0.00    -0.036 A 
HETATM    3  C3  UNL     1      -4.305   3.289  12.324  1.00  0.00     0.033 A 
HETATM    4  C16 UNL     1      -5.591   2.817  11.741  1.00  0.00     0.295 A 
HETATM    5  O2  UNL     1      -5.647   1.795  11.059  1.00  0.00    -0.259 OA
HETATM    6  O3  UNL     1      -6.724   3.565  11.993  1.00  0.00    -0.274 OA
HETATM    7  C17 UNL     1      -6.677   4.701  12.813  1.00  0.00     0.093 A 
HETATM    8  C18 UNL     1      -7.889   5.364  13.016  1.00  0.00     0.075 A 
HETATM    9  C19 UNL     1      -7.928   6.488  13.831  1.00  0.00     0.079 A 
HETATM   10  C20 UNL     1      -6.755   6.963  14.420  1.00  0.00    -0.024 A 
HETATM   11  C21 UNL     1      -5.546   6.273  14.206  1.00  0.00     0.024 A 
HETATM   12  C22 UNL     1      -5.488   5.129  13.396  1.00  0.00     0.005 A 
HETATM   13  C23 UNL     1      -6.776   8.174  15.304  1.00  0.00     0.044 C 
HETATM   14  C24 UNL     1      -8.044   8.981  15.072  1.00  0.00     0.042 C 
HETATM   15  C25 UNL     1      -9.279   8.071  15.012  1.00  0.00     0.061 C 
HETATM   16  C26 UNL     1     -10.500   8.920  14.628  1.00  0.00     0.046 C 
HETATM   17  C27 UNL     1      -9.573   7.374  16.350  1.00  0.00     0.046 C 
HETATM   18  O4  UNL     1      -9.154   7.073  13.982  1.00  0.00    -0.340 OA
ENDROOT
BRANCH   3  19
HETATM   19  C4  UNL     1      -3.127   2.442  11.914  1.00  0.00     0.148 C 
BRANCH  19  20
HETATM   20  C5  UNL     1      -2.084   3.309  11.232  1.00  0.00     0.222 C 
HETATM   21  O1  UNL     1      -2.183   3.646  10.054  1.00  0.00    -0.273 OA
HETATM   22  N1  UNL     1      -1.037   3.680  12.040  1.00  0.00    -0.360 N 
HETATM   23  H6  UNL     1      -1.013   3.338  12.999  1.00  0.00     0.162 HD
BRANCH  22  24
HETATM   24  C6  UNL     1       0.107   4.422  11.546  1.00  0.00     0.127 C 
BRANCH  24  25
HETATM   25  C7  UNL     1       0.009   5.931  11.802  1.00  0.00     0.060 C 
BRANCH  25  26
HETATM   26  C8  UNL     1       1.297   6.653  11.539  1.00  0.00    -0.029 A 
HETATM   27  C9  UNL     1       2.249   7.005  12.477  1.00  0.00     0.096 A 
HETATM   28  N2  UNL     1       3.283   7.624  11.830  1.00  0.00    -0.365 N 
HETATM   29  C10 UNL     1       3.031   7.688  10.479  1.00  0.00     0.043 A 
HETATM   30  H12 UNL     1       4.118   7.981  12.274  1.00  0.00     0.165 HD
HETATM   31  C11 UNL     1       3.807   8.219   9.442  1.00  0.00     0.032 A 
HETATM   32  C15 UNL     1       1.785   7.098  10.267  1.00  0.00    -0.000 A 
HETATM   33  C12 UNL     1       3.292   8.140   8.144  1.00  0.00     0.026 A 
HETATM   34  C13 UNL     1       2.048   7.560   7.906  1.00  0.00     0.035 A 
HETATM   35 CL1  UNL     1       1.446   7.472   6.294  1.00  0.00    -0.084 Cl
HETATM   36  C14 UNL     1       1.280   7.041   8.951  1.00  0.00     0.038 A 
ENDBRANCH  25  26
ENDBRANCH  24  25
ENDBRANCH  22  24
ENDBRANCH  19  20
ENDBRANCH   3  19
TORSDOF 5
ENDMDL
