MODEL 1
REMARK minimizedAffinity -9.89277935
REMARK  6 active torsions:
REMARK  status: ('A' for Active; 'I' for Inactive)
REMARK    1  A    between atoms: C2_2  and  C30_31 
REMARK    2  A    between atoms: C3_3  and  C4_4 
REMARK    3  A    between atoms: C4_4  and  C5_5 
REMARK    4  A    between atoms: C5_5  and  C6_6 
REMARK    5  A    between atoms: C6_6  and  C8_8 
REMARK    6  A    between atoms: C30_31  and  O3_33 
ROOT
HETATM    1  C8  UNL     1      -3.158  48.728 -19.750  1.00  0.00    -0.002 C 
HETATM    2  C9  UNL     1      -3.739  47.575 -20.609  1.00  0.00     0.007 C 
HETATM    3  C10 UNL     1      -3.431  47.926 -22.084  1.00  0.00     0.015 C 
HETATM    4  C11 UNL     1      -2.982  49.405 -22.060  1.00  0.00    -0.013 C 
HETATM    5  C12 UNL     1      -4.298  50.252 -22.069  1.00  0.00     0.021 C 
HETATM    6  C13 UNL     1      -2.144  49.942 -23.212  1.00  0.00    -0.070 C 
HETATM    7  C14 UNL     1      -2.292  49.501 -24.476  1.00  0.00    -0.022 C 
HETATM    8  C15 UNL     1      -1.603  50.099 -25.670  1.00  0.00     0.034 C 
HETATM    9  C16 UNL     1      -0.503  51.125 -25.317  1.00  0.00     0.013 C 
HETATM   10  C17 UNL     1       0.153  51.870 -26.543  1.00  0.00     0.018 C 
HETATM   11  C18 UNL     1       1.632  51.443 -26.673  1.00  0.00     0.023 C 
HETATM   12  C19 UNL     1      -0.529  51.556 -27.892  1.00  0.00     0.023 C 
HETATM   13  C20 UNL     1       0.171  53.395 -26.361  1.00  0.00     0.135 C 
HETATM   14  O1  UNL     1      -0.004  54.167 -27.307  1.00  0.00    -0.297 OA
HETATM   15  C21 UNL     1       0.510  53.964 -25.003  1.00  0.00     0.080 C 
HETATM   16  C22 UNL     1       0.199  53.031 -23.844  1.00  0.00     0.017 C 
HETATM   17  C23 UNL     1      -0.956  52.045 -24.127  1.00  0.00    -0.031 C 
HETATM   18  C24 UNL     1      -2.253  52.833 -24.446  1.00  0.00     0.016 C 
HETATM   19  C25 UNL     1      -1.179  51.092 -22.884  1.00  0.00     0.024 C 
HETATM   20  C26 UNL     1      -1.514  51.819 -21.556  1.00  0.00     0.010 C 
HETATM   21  C27 UNL     1      -1.857  50.912 -20.349  1.00  0.00     0.011 C 
HETATM   22  C28 UNL     1      -2.170  49.449 -20.721  1.00  0.00    -0.029 C 
HETATM   23  C29 UNL     1      -0.827  48.662 -20.775  1.00  0.00     0.016 C 
ENDROOT
BRANCH   1  24
HETATM   24  C6  UNL     1      -2.670  48.362 -18.316  1.00  0.00    -0.014 C 
HETATM   25  C7  UNL     1      -2.819  46.838 -18.131  1.00  0.00     0.010 C 
BRANCH  24  26
HETATM   26  C5  UNL     1      -1.217  48.781 -17.977  1.00  0.00     0.008 C 
BRANCH  26  27
HETATM   27  C4  UNL     1      -1.104  50.033 -17.091  1.00  0.00     0.028 C 
BRANCH  27  28
HETATM   28  C3  UNL     1       0.053  50.032 -16.134  1.00  0.00    -0.013 C 
HETATM   29  C2  UNL     1       1.012  50.967 -15.978  1.00  0.00     0.008 C 
HETATM   30  C1  UNL     1       2.085  50.806 -14.937  1.00  0.00     0.055 C 
BRANCH  29  31
HETATM   31  C30 UNL     1       1.083  52.178 -16.836  1.00  0.00     0.171 C 
HETATM   32  O2  UNL     1       0.851  52.259 -18.029  1.00  0.00    -0.646 OA
BRANCH  31  33
HETATM   33  O3  UNL     1       1.458  53.266 -16.141  1.00  0.00    -0.773 OA
HETATM   34  H46 UNL     1       1.458  53.974 -16.819  1.00  0.00     0.167 HD
ENDBRANCH  31  33
ENDBRANCH  29  31
ENDBRANCH  27  28
ENDBRANCH  26  27
ENDBRANCH  24  26
ENDBRANCH   1  24
TORSDOF 6
ENDMDL
