MODEL 1
REMARK minimizedAffinity -9.78518295
REMARK  11 active torsions:
REMARK  status: ('A' for Active; 'I' for Inactive)
REMARK    1  A    between atoms: C2_2  and  C4_4 
REMARK    2  A    between atoms: C12_13  and  C13_14 
REMARK    3  A    between atoms: C13_14  and  C15_16 
REMARK    4  A    between atoms: C15_16  and  C16_17 
REMARK    5  A    between atoms: C16_17  and  C17_18 
REMARK    6  A    between atoms: C18_19  and  C20_21 
REMARK    7  A    between atoms: C20_21  and  O3_23 
REMARK    8  A    between atoms: C27_30  and  C28_31 
REMARK    9  A    between atoms: C28_31  and  C29_32 
REMARK   10  A    between atoms: C29_32  and  C30_33 
REMARK   11  A    between atoms: C30_33  and  O5_35 
ROOT
HETATM    1  C4  UNL     1       0.572  52.155 -22.103  1.00  0.00     0.054 C 
HETATM    2  C5  UNL     1       0.702  52.642 -23.522  1.00  0.00     0.160 A 
HETATM    3  O1  UNL     1      -0.411  53.373 -24.056  1.00  0.00    -0.374 OA
HETATM    4  C6  UNL     1      -0.136  52.090 -24.635  1.00  0.00     0.157 A 
HETATM    5  C7  UNL     1      -1.128  50.987 -24.388  1.00  0.00     0.035 C 
HETATM    6  C8  UNL     1      -2.362  51.024 -25.370  1.00  0.00    -0.029 C 
HETATM    7  C9  UNL     1      -2.955  52.447 -25.495  1.00  0.00     0.016 C 
HETATM    8  C10 UNL     1      -1.890  50.598 -26.804  1.00  0.00     0.011 C 
HETATM    9  C11 UNL     1      -2.616  49.309 -27.163  1.00  0.00     0.006 C 
HETATM   10  C12 UNL     1      -3.921  49.394 -26.379  1.00  0.00    -0.002 C 
HETATM   11  C21 UNL     1      -3.473  49.944 -24.983  1.00  0.00    -0.032 C 
HETATM   12  C22 UNL     1      -4.711  50.527 -24.259  1.00  0.00     0.016 C 
HETATM   13  C23 UNL     1      -2.853  48.862 -24.071  1.00  0.00     0.011 C 
HETATM   14  C24 UNL     1      -2.282  49.418 -22.762  1.00  0.00     0.011 C 
HETATM   15  C25 UNL     1      -1.559  50.752 -22.936  1.00  0.00    -0.024 A 
HETATM   16  C26 UNL     1      -2.068  51.903 -22.097  1.00  0.00     0.022 A 
HETATM   17  C27 UNL     1      -0.701  51.327 -21.766  1.00  0.00    -0.021 A 
ENDROOT
BRANCH  10  18
HETATM   18  C13 UNL     1      -4.812  48.115 -26.423  1.00  0.00    -0.014 C 
HETATM   19  C14 UNL     1      -5.388  47.788 -27.804  1.00  0.00     0.010 C 
BRANCH  18  20
HETATM   20  C15 UNL     1      -5.943  48.262 -25.367  1.00  0.00     0.008 C 
BRANCH  20  21
HETATM   21  C16 UNL     1      -7.142  47.311 -25.531  1.00  0.00     0.028 C 
BRANCH  21  22
HETATM   22  C17 UNL     1      -7.832  47.433 -26.864  1.00  0.00    -0.013 C 
HETATM   23  C18 UNL     1      -9.004  48.041 -27.138  1.00  0.00     0.008 C 
HETATM   24  C19 UNL     1      -9.611  48.016 -28.510  1.00  0.00     0.055 C 
BRANCH  23  25
HETATM   25  C20 UNL     1      -9.819  48.766 -26.138  1.00  0.00     0.171 C 
HETATM   26  O2  UNL     1     -10.720  48.283 -25.476  1.00  0.00    -0.646 OA
BRANCH  25  27
HETATM   27  O3  UNL     1      -9.541  50.079 -26.086  1.00  0.00    -0.773 OA
HETATM   28  H30 UNL     1     -10.180  50.425 -25.430  1.00  0.00     0.167 HD
ENDBRANCH  25  27
ENDBRANCH  23  25
ENDBRANCH  21  22
ENDBRANCH  20  21
ENDBRANCH  18  20
ENDBRANCH  10  18
BRANCH  17  29
HETATM   29  C28 UNL     1      -0.502  50.459 -20.506  1.00  0.00     0.021 C 
BRANCH  29  30
HETATM   30  C29 UNL     1      -1.749  50.099 -19.708  1.00  0.00     0.111 C 
BRANCH  30  31
HETATM   31  C30 UNL     1      -1.883  50.896 -18.442  1.00  0.00     0.139 C 
HETATM   32  O4  UNL     1      -1.241  50.732 -17.418  1.00  0.00    -0.650 OA
BRANCH  31  33
HETATM   33  O5  UNL     1      -2.779  51.897 -18.538  1.00  0.00    -0.776 OA
HETATM   34  H44 UNL     1      -2.789  52.284 -17.639  1.00  0.00     0.167 HD
ENDBRANCH  31  33
ENDBRANCH  30  31
ENDBRANCH  29  30
ENDBRANCH  17  29
BRANCH   1  35
HETATM   35  C2  UNL     1       0.907  53.259 -21.091  1.00  0.00    -0.086 C 
HETATM   36  C1  UNL     1       1.724  54.289 -21.366  1.00  0.00     0.014 C 
HETATM   37  C3  UNL     1       0.284  53.112 -19.728  1.00  0.00     0.043 C 
ENDBRANCH   1  35
TORSDOF 11
ENDMDL
