MODEL 1
REMARK minimizedAffinity -9.56412506
REMARK CNNscore 0.532408416
REMARK CNNaffinity 6.84855127
REMARK  6 active torsions:
REMARK  status: ('A' for Active; 'I' for Inactive)
REMARK    1  A    between atoms: C2_2  and  O2_4 
REMARK    2  A    between atoms: O2_4  and  C3_5 
REMARK    3  A    between atoms: C13_15  and  C14_16 
REMARK    4  A    between atoms: C14_16  and  C16_18 
REMARK    5  A    between atoms: C17_19  and  C18_20 
REMARK    6  A    between atoms: C18_20  and  C20_22 
ROOT
HETATM    1  C3  UNL     1       2.597   7.392  10.320  1.00  0.00     0.135 C 
HETATM    2  C4  UNL     1       2.456   5.992  10.925  1.00  0.00     0.034 C 
HETATM    3  C5  UNL     1       1.114   5.790  11.634  1.00  0.00     0.015 C 
HETATM    4  C6  UNL     1       0.842   6.854  12.727  1.00  0.00     0.001 C 
HETATM    5  C7  UNL     1       1.849   6.647  13.888  1.00  0.00     0.019 C 
HETATM    6  C8  UNL     1      -0.643   6.729  13.235  1.00  0.00     0.039 C 
HETATM    7  C9  UNL     1      -0.919   5.865  14.471  1.00  0.00     0.010 C 
HETATM    8  C10 UNL     1      -2.437   5.677  14.716  1.00  0.00     0.010 C 
HETATM    9  C11 UNL     1      -3.320   6.887  14.298  1.00  0.00    -0.033 C 
HETATM   10  C12 UNL     1      -3.971   6.633  12.918  1.00  0.00     0.016 C 
HETATM   11  C13 UNL     1      -4.405   7.290  15.352  1.00  0.00     0.001 C 
HETATM   12  C23 UNL     1      -4.667   8.792  15.035  1.00  0.00     0.006 C 
HETATM   13  C24 UNL     1      -3.430   9.321  14.294  1.00  0.00     0.009 C 
HETATM   14  C25 UNL     1      -2.445   8.160  14.338  1.00  0.00     0.036 C 
HETATM   15  C26 UNL     1      -1.230   8.171  13.395  1.00  0.00     0.123 C 
HETATM   16  C27 UNL     1      -1.388   8.702  11.989  1.00  0.00     0.014 C 
HETATM   17  C28 UNL     1      -0.240   8.704  11.290  1.00  0.00     0.014 C 
HETATM   18  C29 UNL     1       0.979   8.296  12.106  1.00  0.00     0.124 C 
HETATM   19  C30 UNL     1       2.299   8.495  11.344  1.00  0.00     0.079 C 
HETATM   20  O3  UNL     1       0.958   9.244  13.201  1.00  0.00    -0.223 OA
HETATM   21  O4  UNL     1      -0.225   8.982  14.074  1.00  0.00    -0.224 OA
ENDROOT
BRANCH  11  22
HETATM   22  C14 UNL     1      -5.713   6.459  15.442  1.00  0.00     0.008 C 
HETATM   23  C15 UNL     1      -6.928   7.300  15.855  1.00  0.00     0.014 C 
BRANCH  22  24
HETATM   24  C16 UNL     1      -5.951   5.702  14.143  1.00  0.00    -0.026 C 
HETATM   25  C17 UNL     1      -6.741   4.630  13.964  1.00  0.00    -0.026 C 
BRANCH  25  26
HETATM   26  C18 UNL     1      -6.912   3.920  12.636  1.00  0.00     0.007 C 
HETATM   27  C19 UNL     1      -8.270   3.210  12.647  1.00  0.00     0.014 C 
BRANCH  26  28
HETATM   28  C20 UNL     1      -5.729   2.946  12.365  1.00  0.00    -0.015 C 
HETATM   29  C21 UNL     1      -4.606   3.625  11.568  1.00  0.00     0.010 C 
HETATM   30  C22 UNL     1      -6.174   1.687  11.611  1.00  0.00     0.010 C 
ENDBRANCH  26  28
ENDBRANCH  25  26
ENDBRANCH  22  24
ENDBRANCH  11  22
BRANCH   1  31
HETATM   31  O2  UNL     1       1.693   7.469   9.199  1.00  0.00    -0.316 OA
BRANCH  31  32
HETATM   32  C2  UNL     1       2.257   7.727   7.987  1.00  0.00     0.255 C 
HETATM   33  C1  UNL     1       2.244   6.491   7.142  1.00  0.00     0.126 C 
HETATM   34  O1  UNL     1       2.728   8.798   7.635  1.00  0.00    -0.266 OA
ENDBRANCH  31  32
ENDBRANCH   1  31
TORSDOF 6
ENDMDL
