MODEL 1
REMARK minimizedAffinity -7.26365852
REMARK CNNscore 0.770057142
REMARK CNNaffinity 6.33642006
REMARK  7 active torsions:
REMARK  status: ('A' for Active; 'I' for Inactive)
REMARK    1  A    between atoms: C2_2  and  C30_33 
REMARK    2  A    between atoms: C3_3  and  C4_4 
REMARK    3  A    between atoms: C4_4  and  C5_5 
REMARK    4  A    between atoms: C5_5  and  C6_6 
REMARK    5  A    between atoms: C6_6  and  C8_8 
REMARK    6  A    between atoms: C10_10  and  O1_11 
REMARK    7  A    between atoms: C30_33  and  O5_35 
ROOT
HETATM    1  C8  UNL     1     -17.507   2.099  14.165  1.00  0.00     0.001 C 
HETATM    2  C9  UNL     1     -17.458   2.163  12.617  1.00  0.00     0.038 C 
HETATM    3  C10 UNL     1     -16.923   0.791  12.139  1.00  0.00     0.131 C 
HETATM    4  C11 UNL     1     -17.050  -0.140  13.377  1.00  0.00     0.014 C 
HETATM    5  C12 UNL     1     -18.523  -0.659  13.454  1.00  0.00     0.023 C 
HETATM    6  C13 UNL     1     -16.192  -1.399  13.491  1.00  0.00    -0.058 C 
HETATM    7  C14 UNL     1     -15.879  -1.928  14.704  1.00  0.00    -0.000 C 
HETATM    8  C15 UNL     1     -16.292  -1.171  15.965  1.00  0.00     0.157 C 
HETATM    9  O2  UNL     1     -16.135  -1.664  17.081  1.00  0.00    -0.293 OA
HETATM   10  C16 UNL     1     -16.916   0.217  15.860  1.00  0.00     0.094 C 
HETATM   11  C17 UNL     1     -16.626   0.860  14.506  1.00  0.00    -0.019 C 
HETATM   12  C18 UNL     1     -15.113   1.236  14.475  1.00  0.00     0.017 C 
HETATM   13  C19 UNL     1     -15.109  -3.263  14.873  1.00  0.00    -0.008 C 
HETATM   14  C20 UNL     1     -13.687  -2.885  15.356  1.00  0.00     0.021 C 
HETATM   15  C21 UNL     1     -15.775  -4.189  15.942  1.00  0.00     0.022 C 
HETATM   16  C22 UNL     1     -15.600  -5.692  15.732  1.00  0.00     0.080 C 
HETATM   17  C23 UNL     1     -14.361  -6.015  14.937  1.00  0.00     0.135 C 
HETATM   18  O3  UNL     1     -13.514  -6.795  15.372  1.00  0.00    -0.297 OA
HETATM   19  C24 UNL     1     -14.268  -5.396  13.539  1.00  0.00     0.018 C 
HETATM   20  C25 UNL     1     -12.790  -5.229  13.138  1.00  0.00     0.023 C 
HETATM   21  C26 UNL     1     -14.896  -6.416  12.565  1.00  0.00     0.023 C 
HETATM   22  C27 UNL     1     -15.098  -4.065  13.516  1.00  0.00     0.014 C 
HETATM   23  C28 UNL     1     -14.750  -3.151  12.336  1.00  0.00     0.011 C 
HETATM   24  C29 UNL     1     -15.787  -2.044  12.189  1.00  0.00     0.036 C 
ENDROOT
BRANCH   1  25
HETATM   25  C6  UNL     1     -17.249   3.427  14.936  1.00  0.00    -0.013 C 
HETATM   26  C7  UNL     1     -17.108   3.285  16.457  1.00  0.00     0.010 C 
BRANCH  25  27
HETATM   27  C5  UNL     1     -15.986   4.118  14.354  1.00  0.00     0.008 C 
BRANCH  27  28
HETATM   28  C4  UNL     1     -15.835   5.587  14.764  1.00  0.00     0.028 C 
BRANCH  28  29
HETATM   29  C3  UNL     1     -14.483   6.122  14.376  1.00  0.00    -0.013 C 
HETATM   30  C2  UNL     1     -14.153   6.870  13.303  1.00  0.00     0.008 C 
HETATM   31  C1  UNL     1     -12.728   7.245  13.012  1.00  0.00     0.055 C 
BRANCH  30  32
HETATM   32  C30 UNL     1     -15.116   7.381  12.299  1.00  0.00     0.171 C 
HETATM   33  O4  UNL     1     -15.933   6.704  11.701  1.00  0.00    -0.646 OA
BRANCH  32  34
HETATM   34  O5  UNL     1     -14.953   8.682  12.013  1.00  0.00    -0.773 OA
HETATM   35  H44 UNL     1     -15.622   8.844  11.317  1.00  0.00     0.167 HD
ENDBRANCH  32  34
ENDBRANCH  30  32
ENDBRANCH  28  29
ENDBRANCH  27  28
ENDBRANCH  25  27
ENDBRANCH   1  25
BRANCH   3  36
HETATM   36  O1  UNL     1     -17.654   0.331  11.012  1.00  0.00    -0.394 OA
HETATM   37  H17 UNL     1     -17.582   1.009  10.318  1.00  0.00     0.210 HD
ENDBRANCH   3  36
TORSDOF 7
ENDMDL
