MODEL 1
REMARK minimizedAffinity -11.0849552
REMARK CNNscore 0.668860435
REMARK CNNaffinity 7.28410912
REMARK  4 active torsions:
REMARK  status: ('A' for Active; 'I' for Inactive)
REMARK    1  A    between atoms: C2_2  and  C3_3 
REMARK    2  A    between atoms: C6_6  and  C7_7 
REMARK    3  A    between atoms: C7_7  and  O1_9 
REMARK    4  A    between atoms: C23_29  and  O6_30 
ROOT
HETATM    1  C3  UNL     1      -1.605  51.775 -26.161  1.00  0.00     0.008 C 
HETATM    2  C4  UNL     1      -1.185  50.372 -26.514  1.00  0.00    -0.023 C 
HETATM    3  C5  UNL     1      -1.893  49.232 -26.447  1.00  0.00     0.004 C 
HETATM    4  C6  UNL     1      -3.314  48.915 -26.018  1.00  0.00     0.182 C 
HETATM    5  O2  UNL     1      -3.911  49.914 -25.174  1.00  0.00    -0.308 OA
HETATM    6  C9  UNL     1      -3.655  49.802 -23.842  1.00  0.00     0.276 C 
HETATM    7  O3  UNL     1      -2.809  49.054 -23.359  1.00  0.00    -0.264 OA
HETATM    8  C10 UNL     1      -4.669  50.609 -22.982  1.00  0.00     0.095 C 
HETATM    9  C11 UNL     1      -5.284  51.819 -23.722  1.00  0.00     0.036 C 
HETATM   10  C12 UNL     1      -5.807  49.619 -22.811  1.00  0.00     0.003 C 
HETATM   11  C13 UNL     1      -6.417  49.105 -21.744  1.00  0.00     0.072 C 
HETATM   12  C14 UNL     1      -6.179  49.323 -20.316  1.00  0.00     0.245 C 
HETATM   13  O4  UNL     1      -6.955  48.810 -19.511  1.00  0.00    -0.268 OA
HETATM   14  N1  UNL     1      -5.127  50.032 -19.870  1.00  0.00    -0.320 N 
HETATM   15  C15 UNL     1      -4.100  50.741 -20.438  1.00  0.00     0.098 C 
HETATM   16  C16 UNL     1      -3.890  51.033 -21.733  1.00  0.00     0.045 C 
HETATM   17  C17 UNL     1      -2.704  51.916 -22.035  1.00  0.00     0.194 C 
HETATM   18  O5  UNL     1      -2.688  52.631 -23.027  1.00  0.00    -0.287 OA
HETATM   19  C18 UNL     1      -1.555  51.954 -21.121  1.00  0.00     0.046 A 
HETATM   20  C19 UNL     1      -1.807  51.661 -19.786  1.00  0.00     0.032 A 
HETATM   21  C20 UNL     1      -0.810  51.808 -18.812  1.00  0.00     0.026 A 
HETATM   22  C21 UNL     1       0.462  52.267 -19.165  1.00  0.00    -0.027 A 
HETATM   23  C22 UNL     1       1.517  52.472 -18.112  1.00  0.00     0.051 C 
HETATM   24  C23 UNL     1       0.713  52.574 -20.508  1.00  0.00     0.086 A 
HETATM   25  C24 UNL     1      -0.275  52.396 -21.502  1.00  0.00     0.059 A 
HETATM   26  C25 UNL     1       0.132  52.709 -22.900  1.00  0.00     0.163 C 
HETATM   27  O7  UNL     1       0.844  53.702 -23.070  1.00  0.00    -0.292 OA
HETATM   28  C26 UNL     1      -0.164  51.739 -24.024  1.00  0.00     0.084 C 
HETATM   29  C27 UNL     1      -0.533  52.490 -25.312  1.00  0.00     0.016 C 
HETATM   30  C28 UNL     1      -3.143  51.219 -19.379  1.00  0.00     0.210 C 
HETATM   31  O8  UNL     1      -3.458  51.171 -18.193  1.00  0.00    -0.285 OA
HETATM   32  H20 UNL     1      -5.100  50.020 -18.846  1.00  0.00     0.169 HD
ENDROOT
BRANCH   4  33
HETATM   33  C7  UNL     1      -4.208  48.738 -27.276  1.00  0.00     0.147 C 
HETATM   34  C8  UNL     1      -5.488  47.963 -26.976  1.00  0.00     0.042 C 
BRANCH  33  35
HETATM   35  O1  UNL     1      -3.500  48.024 -28.298  1.00  0.00    -0.393 OA
HETATM   36  H14 UNL     1      -3.888  48.285 -29.152  1.00  0.00     0.210 HD
ENDBRANCH  33  35
ENDBRANCH   4  33
BRANCH   1  37
HETATM   37  C2  UNL     1      -1.982  52.584 -27.422  1.00  0.00     0.004 C 
HETATM   38  C1  UNL     1      -0.917  53.542 -27.945  1.00  0.00     0.006 C 
ENDBRANCH   1  37
BRANCH  24  39
HETATM   39  O6  UNL     1       1.960  53.070 -20.806  1.00  0.00    -0.359 OA
HETATM   40  H25 UNL     1       1.908  53.545 -21.666  1.00  0.00     0.217 HD
ENDBRANCH  24  39
TORSDOF 4
ENDMDL
