MODEL 1
REMARK minimizedAffinity -7.29948854
REMARK CNNscore 0.484291166
REMARK CNNaffinity 6.39177942
REMARK  4 active torsions:
REMARK  status: ('A' for Active; 'I' for Inactive)
REMARK    1  A    between atoms: C2_2  and  C4_4 
REMARK    2  A    between atoms: C4_4  and  C5_5 
REMARK    3  A    between atoms: C5_5  and  O1_6 
REMARK    4  A    between atoms: C8_9  and  C9_10 
ROOT
HETATM    1  C9  UNL     1      -0.759  10.026  16.548  1.00  0.00     0.001 C 
HETATM    2  C10 UNL     1       0.439  11.002  16.393  1.00  0.00     0.007 C 
HETATM    3  C11 UNL     1       0.069  12.301  17.130  1.00  0.00     0.011 C 
HETATM    4  C12 UNL     1      -1.137  11.929  18.012  1.00  0.00    -0.032 C 
HETATM    5  C13 UNL     1      -0.553  11.275  19.304  1.00  0.00     0.016 C 
HETATM    6  C14 UNL     1      -2.053  13.126  18.381  1.00  0.00     0.004 C 
HETATM    7  C15 UNL     1      -1.428  14.118  19.370  1.00  0.00     0.007 C 
HETATM    8  C16 UNL     1      -2.376  15.289  19.620  1.00  0.00     0.007 C 
HETATM    9  C17 UNL     1      -3.603  14.810  20.406  1.00  0.00     0.010 C 
HETATM   10  C18 UNL     1      -4.642  15.927  20.747  1.00  0.00     0.018 C 
HETATM   11  C19 UNL     1      -5.185  16.660  19.511  1.00  0.00     0.023 C 
HETATM   12  C20 UNL     1      -4.021  16.960  21.705  1.00  0.00     0.023 C 
HETATM   13  C21 UNL     1      -5.836  15.297  21.480  1.00  0.00     0.135 C 
HETATM   14  O2  UNL     1      -6.832  15.954  21.793  1.00  0.00    -0.297 OA
HETATM   15  C22 UNL     1      -5.714  13.851  21.893  1.00  0.00     0.080 C 
HETATM   16  C23 UNL     1      -5.362  12.980  20.697  1.00  0.00     0.018 C 
HETATM   17  C24 UNL     1      -4.288  13.584  19.788  1.00  0.00    -0.026 A 
HETATM   18  C25 UNL     1      -4.595  13.534  18.309  1.00  0.00     0.021 A 
HETATM   19  C26 UNL     1      -3.465  12.670  18.833  1.00  0.00    -0.027 A 
HETATM   20  C27 UNL     1      -3.719  11.161  18.915  1.00  0.00     0.011 C 
HETATM   21  C28 UNL     1      -3.010  10.252  17.892  1.00  0.00     0.011 C 
HETATM   22  C29 UNL     1      -1.917  10.942  17.064  1.00  0.00    -0.032 C 
HETATM   23  C30 UNL     1      -2.611  11.638  15.860  1.00  0.00     0.016 C 
ENDROOT
BRANCH   1  24
HETATM   24  C8  UNL     1      -0.911   9.030  15.364  1.00  0.00     0.014 C 
HETATM   25  C7  UNL     1      -0.254   9.534  14.075  1.00  0.00     0.010 C 
HETATM   26  C6  UNL     1      -0.574   8.606  12.903  1.00  0.00     0.041 C 
HETATM   27  C4  UNL     1      -0.287   7.114  13.199  1.00  0.00     0.085 C 
HETATM   28  O3  UNL     1      -0.877   6.755  14.471  1.00  0.00    -0.377 OA
HETATM   29  C31 UNL     1      -0.516   7.568  15.594  1.00  0.00     0.174 C 
BRANCH  27  30
HETATM   30  C2  UNL     1      -1.029   6.224  12.133  1.00  0.00     0.014 C 
HETATM   31  C1  UNL     1      -2.283   5.511  12.659  1.00  0.00     0.012 C 
HETATM   32  C3  UNL     1      -0.131   5.196  11.435  1.00  0.00     0.012 C 
ENDBRANCH  27  30
BRANCH  27  33
HETATM   33  C5  UNL     1       1.244   6.851  13.247  1.00  0.00     0.202 C 
BRANCH  33  34
HETATM   34  O1  UNL     1       1.586   5.904  14.257  1.00  0.00    -0.398 OA
HETATM   35  H10 UNL     1       0.944   6.043  14.980  1.00  0.00     0.209 HD
ENDBRANCH  33  34
ENDBRANCH  27  33
ENDBRANCH   1  24
TORSDOF 4
ENDMDL
