MODEL 1
REMARK minimizedAffinity -9.39311314
REMARK  7 active torsions:
REMARK  status: ('A' for Active; 'I' for Inactive)
REMARK    1  A    between atoms: C2_2  and  C3_3 
REMARK    2  A    between atoms: C2_2  and  C4_5 
REMARK    3  A    between atoms: C3_3  and  O1_4 
REMARK    4  A    between atoms: C13_14  and  C14_15 
REMARK    5  A    between atoms: C14_15  and  C16_17 
REMARK    6  A    between atoms: C16_17  and  C17_18 
REMARK    7  A    between atoms: C17_18  and  C18_20 
ROOT
HETATM    1  C4  UNL     1      -0.573  52.651 -22.621  1.00  0.00     0.051 C 
HETATM    2  C5  UNL     1      -0.705  51.371 -21.753  1.00  0.00     0.012 C 
HETATM    3  C6  UNL     1      -1.210  50.074 -22.382  1.00  0.00     0.006 C 
HETATM    4  C7  UNL     1      -2.608  50.057 -23.050  1.00  0.00    -0.001 C 
HETATM    5  C8  UNL     1      -3.198  51.458 -23.384  1.00  0.00    -0.007 C 
HETATM    6  C9  UNL     1      -4.666  51.423 -23.901  1.00  0.00     0.006 C 
HETATM    7  C10 UNL     1      -5.618  50.448 -23.193  1.00  0.00     0.011 C 
HETATM    8  C11 UNL     1      -4.989  49.054 -23.058  1.00  0.00    -0.032 C 
HETATM    9  C12 UNL     1      -4.794  48.459 -24.488  1.00  0.00     0.016 C 
HETATM   10  C13 UNL     1      -5.760  48.014 -22.183  1.00  0.00    -0.002 C 
HETATM   11  C22 UNL     1      -4.631  47.027 -21.768  1.00  0.00     0.006 C 
HETATM   12  C23 UNL     1      -3.281  47.738 -21.997  1.00  0.00     0.011 C 
HETATM   13  C24 UNL     1      -3.648  49.213 -22.238  1.00  0.00    -0.032 C 
HETATM   14  C25 UNL     1      -3.837  49.858 -20.823  1.00  0.00     0.016 C 
HETATM   15  C26 UNL     1      -2.369  52.248 -24.424  1.00  0.00     0.044 C 
HETATM   16  C27 UNL     1      -0.857  52.485 -24.147  1.00  0.00     0.079 C 
HETATM   17  C28 UNL     1       0.006  51.485 -24.915  1.00  0.00     0.049 C 
HETATM   18  C29 UNL     1       0.222  52.121 -26.269  1.00  0.00     0.114 C 
HETATM   19  C30 UNL     1       0.046  53.577 -25.992  1.00  0.00     0.259 C 
HETATM   20  O3  UNL     1       0.369  54.483 -26.741  1.00  0.00    -0.265 OA
HETATM   21  O4  UNL     1      -0.557  53.758 -24.786  1.00  0.00    -0.309 OA
ENDROOT
BRANCH  10  22
HETATM   22  C14 UNL     1      -6.998  47.266 -22.755  1.00  0.00    -0.007 C 
HETATM   23  C15 UNL     1      -7.020  45.777 -22.395  1.00  0.00     0.011 C 
BRANCH  22  24
HETATM   24  C16 UNL     1      -7.147  47.438 -24.288  1.00  0.00     0.087 C 
BRANCH  24  25
HETATM   25  C17 UNL     1      -8.477  46.960 -24.851  1.00  0.00     0.149 C 
HETATM   26  O2  UNL     1      -9.528  47.515 -24.546  1.00  0.00    -0.293 OA
BRANCH  25  27
HETATM   27  C18 UNL     1      -8.429  45.817 -25.817  1.00  0.00     0.052 C 
HETATM   28  C19 UNL     1      -7.914  45.856 -27.061  1.00  0.00    -0.084 C 
HETATM   29  C20 UNL     1      -7.884  44.618 -27.917  1.00  0.00     0.043 C 
HETATM   30  C21 UNL     1      -7.325  47.088 -27.692  1.00  0.00     0.043 C 
ENDBRANCH  25  27
ENDBRANCH  24  25
ENDBRANCH  22  24
ENDBRANCH  10  22
BRANCH   1  31
HETATM   31  C2  UNL     1       0.697  53.417 -22.179  1.00  0.00    -0.059 C 
HETATM   32  C1  UNL     1       1.335  54.377 -22.872  1.00  0.00     0.017 C 
BRANCH  31  33
HETATM   33  C3  UNL     1       1.234  53.028 -20.816  1.00  0.00     0.198 C 
BRANCH  33  34
HETATM   34  O1  UNL     1       1.409  54.196 -20.028  1.00  0.00    -0.397 OA
HETATM   35  H5  UNL     1       1.758  54.884 -20.623  1.00  0.00     0.209 HD
ENDBRANCH  33  34
ENDBRANCH  31  33
ENDBRANCH   1  31
TORSDOF 7
ENDMDL
