MODEL 1
REMARK minimizedAffinity -6.73359632
REMARK CNNscore 0.229532436
REMARK CNNaffinity 5.27989101
REMARK  10 active torsions:
REMARK  status: ('A' for Active; 'I' for Inactive)
REMARK    1  A    between atoms: O1_2  and  C2_3 
REMARK    2  A    between atoms: C11_15  and  O3_16 
REMARK    3  A    between atoms: O3_16  and  C12_17 
REMARK    4  A    between atoms: C12_17  and  C13_19 
REMARK    5  A    between atoms: C13_19  and  C14_20 
REMARK    6  A    between atoms: C14_20  and  C16_22 
REMARK    7  A    between atoms: C16_22  and  O5_23 
REMARK    8  A    between atoms: C24_32  and  O7_33 
REMARK    9  A    between atoms: C25_36  and  O8_37 
REMARK   10  A    between atoms: C26_39  and  O10_40 
ROOT
HETATM    1  C2  UNL     1     -10.864  38.732 -31.222  1.00  0.00     0.092 A 
HETATM    2  C3  UNL     1     -10.513  39.816 -32.033  1.00  0.00     0.046 A 
HETATM    3  C4  UNL     1     -10.689  41.134 -31.590  1.00  0.00    -0.049 A 
HETATM    4  C5  UNL     1     -11.222  41.356 -30.309  1.00  0.00     0.039 A 
HETATM    5  C6  UNL     1     -11.549  40.292 -29.451  1.00  0.00     0.061 A 
HETATM    6  C7  UNL     1     -11.389  38.972 -29.934  1.00  0.00     0.094 A 
HETATM    7 CL1  UNL     1     -11.963  37.601 -29.018  1.00  0.00    -0.079 Cl
HETATM    8  N1  UNL     1     -11.989  40.595 -28.112  1.00  0.00    -0.321 N 
HETATM    9  C8  UNL     1     -11.321  39.890 -27.019  1.00  0.00     0.159 C 
HETATM   10  C9  UNL     1     -12.945  41.602 -27.880  1.00  0.00     0.226 C 
HETATM   11  O2  UNL     1     -13.497  42.230 -28.784  1.00  0.00    -0.273 OA
HETATM   12  C10 UNL     1     -13.366  41.799 -26.425  1.00  0.00     0.139 C 
HETATM   13  C11 UNL     1     -14.103  43.117 -26.145  1.00  0.00     0.177 C 
HETATM   14  C17 UNL     1     -13.266  44.366 -26.447  1.00  0.00     0.111 A 
HETATM   15  C18 UNL     1     -13.768  45.305 -27.502  1.00  0.00     0.051 C 
HETATM   16  O6  UNL     1     -11.837  44.147 -26.502  1.00  0.00    -0.366 OA
HETATM   17  C19 UNL     1     -12.298  44.816 -25.337  1.00  0.00     0.165 A 
HETATM   18  C20 UNL     1     -11.767  46.198 -25.053  1.00  0.00     0.043 C 
HETATM   19  C21 UNL     1     -12.810  46.927 -24.181  1.00  0.00     0.015 C 
HETATM   20  C22 UNL     1     -11.304  47.126 -26.199  1.00  0.00     0.143 C 
HETATM   21  C23 UNL     1     -10.273  46.533 -27.152  1.00  0.00     0.097 C 
HETATM   22  C24 UNL     1      -9.813  47.639 -28.107  1.00  0.00     0.166 C 
HETATM   23  N2  UNL     1      -9.213  48.730 -27.337  1.00  0.00    -0.316 N 
ATOM     24  H2  UNL     1      -8.424  49.273 -27.687  1.00  0.00     0.166 HD
HETATM   25  C25 UNL     1      -9.743  48.956 -26.200  1.00  0.00     0.260 C 
HETATM   26  O9  UNL     1     -10.719  48.294 -25.563  1.00  0.00    -0.311 OA
HETATM   27  C26 UNL     1      -8.725  47.115 -29.132  1.00  0.00     0.199 C 
HETATM   28  C28 UNL     1      -9.165  45.875 -29.885  1.00  0.00     0.010 C 
HETATM   29  C29 UNL     1      -9.567  45.820 -31.165  1.00  0.00    -0.001 C 
HETATM   30  C30 UNL     1     -10.129  44.638 -31.774  1.00  0.00     0.002 C 
HETATM   31  C31 UNL     1      -9.574  43.415 -31.884  1.00  0.00    -0.080 C 
HETATM   32  C32 UNL     1      -8.175  43.060 -31.456  1.00  0.00     0.043 C 
HETATM   33  C33 UNL     1     -10.367  42.288 -32.520  1.00  0.00     0.072 C 
ENDROOT
BRANCH  13  34
HETATM   34  O3  UNL     1     -15.371  43.183 -26.826  1.00  0.00    -0.312 OA
BRANCH  34  35
HETATM   35  C12 UNL     1     -16.424  43.669 -26.121  1.00  0.00     0.259 C 
HETATM   36  O4  UNL     1     -16.502  43.693 -24.900  1.00  0.00    -0.265 OA
BRANCH  35  37
HETATM   37  C13 UNL     1     -17.495  44.170 -27.058  1.00  0.00     0.117 C 
BRANCH  37  38
HETATM   38  C14 UNL     1     -18.278  43.014 -27.702  1.00  0.00     0.014 C 
HETATM   39  C15 UNL     1     -19.788  43.234 -27.578  1.00  0.00     0.012 C 
BRANCH  38  40
HETATM   40  C16 UNL     1     -17.896  42.860 -29.178  1.00  0.00     0.168 C 
BRANCH  40  41
HETATM   41  O5  UNL     1     -17.985  44.106 -29.853  1.00  0.00    -0.400 OA
HETATM   42  H20 UNL     1     -17.354  44.716 -29.432  1.00  0.00     0.209 HD
ENDBRANCH  40  41
ENDBRANCH  38  40
ENDBRANCH  37  38
ENDBRANCH  35  37
ENDBRANCH  34  35
ENDBRANCH  13  34
BRANCH   1  43
HETATM   43  O1  UNL     1     -10.731  37.419 -31.603  1.00  0.00    -0.354 OA
HETATM   44  C1  UNL     1     -11.491  36.965 -32.714  1.00  0.00     0.210 C 
ENDBRANCH   1  43
BRANCH  22  45
HETATM   45  O7  UNL     1     -10.940  48.087 -28.867  1.00  0.00    -0.368 OA
HETATM   46  H32 UNL     1     -10.535  48.585 -29.605  1.00  0.00     0.212 HD
ENDBRANCH  22  45
BRANCH  25  47
HETATM   47  O8  UNL     1      -9.284  49.966 -25.455  1.00  0.00    -0.327 OA
HETATM   48  H33 UNL     1      -8.600  50.411 -25.978  1.00  0.00     0.221 HD
ENDBRANCH  25  47
BRANCH  27  49
HETATM   49  O10 UNL     1      -8.490  48.172 -30.092  1.00  0.00    -0.382 OA
HETATM   50  C27 UNL     1      -9.480  48.204 -31.110  1.00  0.00     0.202 C 
ENDBRANCH  27  49
TORSDOF 10
ENDMDL
