MODEL 1
REMARK minimizedAffinity -10.2692442
REMARK CNNscore 0.461591661
REMARK CNNaffinity 7.439219
REMARK  12 active torsions:
REMARK  status: ('A' for Active; 'I' for Inactive)
REMARK    1  A    between atoms: O1_2  and  C2_3 
REMARK    2  A    between atoms: C2_3  and  C5_6 
REMARK    3  A    between atoms: C6_7  and  C7_8 
REMARK    4  A    between atoms: C7_8  and  C8_9 
REMARK    5  A    between atoms: C8_9  and  C10_11 
REMARK    6  A    between atoms: C28_30  and  O3_31 
REMARK    7  A    between atoms: O3_31  and  C29_32 
REMARK    8  A    between atoms: C30_34  and  C31_35 
REMARK    9  A    between atoms: C31_35  and  O5_36 
REMARK   10  A    between atoms: C32_37  and  O6_38 
REMARK   11  A    between atoms: C33_39  and  O7_40 
REMARK   12  A    between atoms: C34_41  and  O8_42 
ROOT
HETATM    1  C10 UNL     1      -0.911  50.601 -21.202  1.00  0.00    -0.002 C 
HETATM    2  C11 UNL     1      -0.101  49.278 -21.054  1.00  0.00     0.006 C 
HETATM    3  C12 UNL     1      -1.117  48.145 -20.801  1.00  0.00     0.011 C 
HETATM    4  C13 UNL     1      -2.480  48.740 -21.202  1.00  0.00    -0.029 C 
HETATM    5  C14 UNL     1      -2.545  48.628 -22.754  1.00  0.00     0.016 C 
HETATM    6  C15 UNL     1      -3.720  48.062 -20.547  1.00  0.00     0.028 C 
HETATM    7  C16 UNL     1      -3.937  46.607 -20.908  1.00  0.00    -0.021 C 
HETATM    8  C17 UNL     1      -5.170  46.110 -21.106  1.00  0.00     0.008 C 
HETATM    9  C18 UNL     1      -6.410  46.998 -21.050  1.00  0.00     0.092 C 
HETATM   10  O2  UNL     1      -6.591  47.302 -19.653  1.00  0.00    -0.374 OA
HETATM   11  C19 UNL     1      -5.928  48.559 -19.396  1.00  0.00     0.179 C 
HETATM   12  C20 UNL     1      -5.053  48.911 -20.654  1.00  0.00    -0.004 C 
HETATM   13  C21 UNL     1      -4.871  50.454 -20.723  1.00  0.00     0.014 C 
HETATM   14  C22 UNL     1      -3.521  51.019 -21.199  1.00  0.00     0.011 C 
HETATM   15  C23 UNL     1      -2.327  50.218 -20.662  1.00  0.00    -0.032 C 
HETATM   16  C24 UNL     1      -2.330  50.328 -19.112  1.00  0.00     0.016 C 
HETATM   17  C25 UNL     1      -6.080  48.367 -21.675  1.00  0.00     0.036 C 
HETATM   18  C26 UNL     1      -5.805  48.246 -23.168  1.00  0.00     0.011 C 
HETATM   19  C27 UNL     1      -7.011  47.614 -23.874  1.00  0.00     0.033 C 
HETATM   20  C28 UNL     1      -7.470  46.283 -23.239  1.00  0.00     0.136 C 
HETATM   21  C35 UNL     1      -7.695  46.387 -21.696  1.00  0.00     0.014 C 
HETATM   22  C36 UNL     1      -8.950  47.245 -21.376  1.00  0.00     0.021 C 
HETATM   23  C37 UNL     1      -8.013  44.982 -21.122  1.00  0.00     0.021 C 
ENDROOT
BRANCH  20  24
HETATM   24  O3  UNL     1      -8.695  45.882 -23.864  1.00  0.00    -0.352 OA
BRANCH  24  25
HETATM   25  C29 UNL     1      -8.920  46.460 -25.152  1.00  0.00     0.292 C 
HETATM   26  O4  UNL     1      -7.655  46.606 -25.794  1.00  0.00    -0.348 OA
HETATM   27  C30 UNL     1      -7.773  47.054 -27.159  1.00  0.00     0.179 C 
HETATM   28  C32 UNL     1      -8.833  48.167 -27.330  1.00  0.00     0.180 C 
HETATM   29  C33 UNL     1      -9.081  48.865 -25.991  1.00  0.00     0.183 C 
HETATM   30  C34 UNL     1      -9.581  47.846 -24.946  1.00  0.00     0.204 C 
BRANCH  27  31
HETATM   31  C31 UNL     1      -6.375  47.543 -27.561  1.00  0.00     0.198 C 
BRANCH  31  32
HETATM   32  O5  UNL     1      -6.436  48.494 -28.612  1.00  0.00    -0.398 OA
HETATM   33  H48 UNL     1      -5.517  48.709 -28.857  1.00  0.00     0.209 HD
ENDBRANCH  31  32
ENDBRANCH  27  31
BRANCH  28  34
HETATM   34  O6  UNL     1     -10.096  47.590 -27.740  1.00  0.00    -0.390 OA
HETATM   35  H50 UNL     1     -10.638  48.367 -27.999  1.00  0.00     0.210 HD
ENDBRANCH  28  34
BRANCH  29  36
HETATM   36  O7  UNL     1     -10.053  49.909 -26.183  1.00  0.00    -0.390 OA
HETATM   37  H52 UNL     1     -10.574  49.952 -25.359  1.00  0.00     0.210 HD
ENDBRANCH  29  36
BRANCH  30  38
HETATM   38  O8  UNL     1     -11.022  47.734 -25.017  1.00  0.00    -0.388 OA
HETATM   39  H54 UNL     1     -11.218  47.521 -25.953  1.00  0.00     0.210 HD
ENDBRANCH  30  38
ENDBRANCH  24  25
ENDBRANCH  20  24
BRANCH   1  40
HETATM   40  C8  UNL     1      -0.132  51.875 -20.735  1.00  0.00    -0.010 C 
HETATM   41  C9  UNL     1      -0.689  52.630 -19.514  1.00  0.00     0.010 C 
BRANCH  40  42
HETATM   42  C7  UNL     1       0.117  52.849 -21.909  1.00  0.00     0.031 C 
BRANCH  42  43
HETATM   43  C6  UNL     1       0.111  52.197 -23.268  1.00  0.00    -0.027 C 
HETATM   44  C5  UNL     1       0.666  52.762 -24.356  1.00  0.00     0.006 C 
BRANCH  44  45
HETATM   45  C2  UNL     1       0.670  52.246 -25.783  1.00  0.00     0.070 C 
HETATM   46  C3  UNL     1       2.026  51.567 -26.033  1.00  0.00     0.050 C 
HETATM   47  C4  UNL     1      -0.445  51.246 -26.130  1.00  0.00     0.050 C 
BRANCH  45  48
HETATM   48  O1  UNL     1       0.657  53.384 -26.664  1.00  0.00    -0.382 OA
HETATM   49  C1  UNL     1      -0.328  53.369 -27.688  1.00  0.00     0.202 C 
ENDBRANCH  45  48
ENDBRANCH  44  45
ENDBRANCH  42  43
ENDBRANCH  40  42
ENDBRANCH   1  40
TORSDOF 12
ENDMDL
