MODEL 1
REMARK minimizedAffinity -7.15342236
REMARK CNNscore 0.600966454
REMARK CNNaffinity 6.22130394
REMARK  6 active torsions:
REMARK  status: ('A' for Active; 'I' for Inactive)
REMARK    1  A    between atoms: C2_2  and  C30_32 
REMARK    2  A    between atoms: C3_3  and  C4_4 
REMARK    3  A    between atoms: C4_4  and  C5_5 
REMARK    4  A    between atoms: C5_5  and  C6_6 
REMARK    5  A    between atoms: C6_6  and  C8_8 
REMARK    6  A    between atoms: C30_32  and  O4_34 
ROOT
HETATM    1  C8  UNL     1     -17.567   3.156  14.144  1.00  0.00    -0.002 C 
HETATM    2  C9  UNL     1     -17.624   3.046  15.694  1.00  0.00     0.007 C 
HETATM    3  C10 UNL     1     -16.906   1.742  16.092  1.00  0.00     0.015 C 
HETATM    4  C11 UNL     1     -16.184   1.269  14.815  1.00  0.00    -0.005 C 
HETATM    5  C12 UNL     1     -14.826   2.033  14.746  1.00  0.00     0.021 C 
HETATM    6  C13 UNL     1     -15.814  -0.199  14.644  1.00  0.00    -0.000 C 
HETATM    7  C14 UNL     1     -15.758  -0.774  13.415  1.00  0.00    -0.060 C 
HETATM    8  C15 UNL     1     -16.107   0.041  12.160  1.00  0.00     0.036 C 
HETATM    9  C16 UNL     1     -16.601   1.489  12.352  1.00  0.00     0.015 C 
HETATM   10  C17 UNL     1     -17.248   1.688  13.725  1.00  0.00    -0.028 C 
HETATM   11  C18 UNL     1     -18.559   0.839  13.781  1.00  0.00     0.016 C 
HETATM   12  C19 UNL     1     -15.386  -2.266  13.186  1.00  0.00    -0.014 C 
HETATM   13  C20 UNL     1     -16.704  -3.033  12.938  1.00  0.00     0.020 C 
HETATM   14  C21 UNL     1     -14.447  -2.407  11.962  1.00  0.00     0.021 C 
HETATM   15  C22 UNL     1     -13.858  -3.790  11.729  1.00  0.00     0.080 C 
HETATM   16  C23 UNL     1     -14.053  -4.796  12.837  1.00  0.00     0.135 C 
HETATM   17  O1  UNL     1     -14.049  -5.996  12.552  1.00  0.00    -0.297 OA
HETATM   18  C24 UNL     1     -14.138  -4.317  14.292  1.00  0.00     0.018 C 
HETATM   19  C25 UNL     1     -15.077  -5.281  15.054  1.00  0.00     0.023 C 
HETATM   20  C26 UNL     1     -12.722  -4.481  14.881  1.00  0.00     0.023 C 
HETATM   21  C27 UNL     1     -14.578  -2.816  14.402  1.00  0.00     0.020 C 
HETATM   22  C28 UNL     1     -15.280  -2.481  15.719  1.00  0.00     0.090 C 
HETATM   23  C29 UNL     1     -15.468  -0.992  15.863  1.00  0.00     0.157 C 
HETATM   24  O2  UNL     1     -15.367  -0.460  16.967  1.00  0.00    -0.293 OA
ENDROOT
BRANCH   1  25
HETATM   25  C6  UNL     1     -18.814   3.873  13.556  1.00  0.00    -0.014 C 
HETATM   26  C7  UNL     1     -19.145   3.424  12.128  1.00  0.00     0.010 C 
BRANCH  25  27
HETATM   27  C5  UNL     1     -18.735   5.423  13.640  1.00  0.00     0.008 C 
BRANCH  27  28
HETATM   28  C4  UNL     1     -17.914   6.180  12.585  1.00  0.00     0.028 C 
BRANCH  28  29
HETATM   29  C3  UNL     1     -16.426   6.163  12.785  1.00  0.00    -0.013 C 
HETATM   30  C2  UNL     1     -15.539   7.164  12.608  1.00  0.00     0.008 C 
HETATM   31  C1  UNL     1     -14.089   7.001  12.977  1.00  0.00     0.055 C 
BRANCH  30  32
HETATM   32  C30 UNL     1     -15.866   8.511  12.088  1.00  0.00     0.171 C 
HETATM   33  O3  UNL     1     -15.892   9.535  12.747  1.00  0.00    -0.646 OA
BRANCH  32  34
HETATM   34  O4  UNL     1     -16.059   8.545  10.759  1.00  0.00    -0.773 OA
HETATM   35  H44 UNL     1     -16.215   9.491  10.571  1.00  0.00     0.167 HD
ENDBRANCH  32  34
ENDBRANCH  30  32
ENDBRANCH  28  29
ENDBRANCH  27  28
ENDBRANCH  25  27
ENDBRANCH   1  25
TORSDOF 6
ENDMDL
