MODEL 1
REMARK minimizedAffinity -8.00209427
REMARK  5 active torsions:
REMARK  status: ('A' for Active; 'I' for Inactive)
REMARK    1  A    between atoms: O1_2  and  C2_3 
REMARK    2  A    between atoms: C6_11  and  N3_12 
REMARK    3  A    between atoms: C9_15  and  O2_16 
REMARK    4  A    between atoms: O2_16  and  C10_17 
REMARK    5  A    between atoms: C21_32  and  O3_33 
ROOT
HETATM    1  N3  UNL     1      11.746  35.057  21.750  1.00  0.00    -0.266 NA
HETATM    2  C7  UNL     1      12.076  33.823  20.985  1.00  0.00     0.099 C 
HETATM    3  C8  UNL     1      12.207  34.268  19.527  1.00  0.00     0.048 C 
HETATM    4  C9  UNL     1      12.737  35.698  19.677  1.00  0.00     0.145 C 
HETATM    5  C18 UNL     1      11.857  36.215  20.820  1.00  0.00     0.129 C 
ENDROOT
BRANCH   1   6
HETATM    6  C6  UNL     1      10.457  34.961  22.326  1.00  0.00     0.096 A 
HETATM    7  N2  UNL     1      10.350  34.864  23.664  1.00  0.00    -0.342 N 
HETATM    8  C5  UNL     1       9.106  34.794  24.156  1.00  0.00     0.182 A 
ATOM      9  H2  UNL     1      11.171  34.846  24.270  1.00  0.00     0.167 HD
HETATM   10  N1  UNL     1       7.967  34.821  23.451  1.00  0.00    -0.351 N 
HETATM   11  C4  UNL     1       8.090  34.928  22.123  1.00  0.00     0.049 A 
ATOM     12  H1  UNL     1       7.054  34.764  23.903  1.00  0.00     0.166 HD
HETATM   13  C3  UNL     1       6.936  34.972  21.350  1.00  0.00     0.070 A 
HETATM   14  C19 UNL     1       9.331  35.001  21.482  1.00  0.00     0.032 A 
HETATM   15  C2  UNL     1       6.981  35.080  19.954  1.00  0.00     0.103 A 
HETATM   16  C21 UNL     1       8.225  35.138  19.306  1.00  0.00     0.102 A 
HETATM   17  C20 UNL     1       9.391  35.109  20.071  1.00  0.00     0.056 A 
BRANCH  15  18
HETATM   18  O1  UNL     1       5.874  35.121  19.143  1.00  0.00    -0.353 OA
HETATM   19  C1  UNL     1       5.272  33.886  18.785  1.00  0.00     0.210 C 
ENDBRANCH  15  18
BRANCH  16  20
HETATM   20  O3  UNL     1       8.206  35.263  17.939  1.00  0.00    -0.353 OA
HETATM   21  C22 UNL     1       9.291  35.983  17.355  1.00  0.00     0.210 C 
ENDBRANCH  16  20
ENDBRANCH   1   6
BRANCH   4  22
HETATM   22  O2  UNL     1      12.543  36.464  18.486  1.00  0.00    -0.328 OA
BRANCH  22  23
HETATM   23  C10 UNL     1      13.480  36.152  17.522  1.00  0.00     0.159 A 
HETATM   24  C11 UNL     1      13.182  36.432  16.200  1.00  0.00     0.144 A 
HETATM   25  N4  UNL     1      14.053  36.208  15.189  1.00  0.00    -0.360 N 
HETATM   26  C12 UNL     1      15.227  35.660  15.544  1.00  0.00     0.059 A 
ATOM     27  H4  UNL     1      13.834  36.441  14.221  1.00  0.00     0.165 HD
HETATM   28  C13 UNL     1      16.190  35.423  14.568  1.00  0.00     0.032 A 
HETATM   29  C17 UNL     1      15.508  35.312  16.896  1.00  0.00     0.061 A 
HETATM   30  C14 UNL     1      17.414  34.828  14.888  1.00  0.00     0.002 A 
HETATM   31  C15 UNL     1      17.681  34.451  16.208  1.00  0.00     0.002 A 
HETATM   32  C16 UNL     1      16.731  34.702  17.201  1.00  0.00     0.032 A 
HETATM   33  N5  UNL     1      14.629  35.560  17.888  1.00  0.00    -0.334 N 
ATOM     34  H5  UNL     1      14.824  35.312  18.858  1.00  0.00     0.168 HD
ENDBRANCH  22  23
ENDBRANCH   4  22
TORSDOF 5
ENDMDL
