MODEL 1
REMARK minimizedAffinity -7.88629293
REMARK CNNscore 0.489051372
REMARK CNNaffinity 6.7205987
REMARK  10 active torsions:
REMARK  status: ('A' for Active; 'I' for Inactive)
REMARK    1  A    between atoms: C3_3  and  O1_4 
REMARK    2  A    between atoms: N1_14  and  O2_16 
REMARK    3  A    between atoms: O2_16  and  C13_17 
REMARK    4  A    between atoms: C13_17  and  C14_18 
REMARK       I    between atoms: C14_18  and  N2_20 
REMARK    5  A    between atoms: N2_20  and  C15_21 
REMARK    6  A    between atoms: C15_21  and  C16_22 
REMARK       I    between atoms: C16_22  and  N3_24 
REMARK    7  A    between atoms: N3_24  and  C17_25 
REMARK    8  A    between atoms: C17_25  and  C18_26 
REMARK    9  A    between atoms: C17_25  and  C19_29 
REMARK   10  A    between atoms: C18_26  and  O6_28 
ROOT
HETATM    1  C1  UNL     1       6.785  58.894  -4.793  1.00  0.00     0.015 C 
HETATM    2  C2  UNL     1       5.787  58.234  -4.907  1.00  0.00    -0.078 C 
HETATM    3  C3  UNL     1       4.546  57.431  -5.021  1.00  0.00     0.128 C 
HETATM    4  C4  UNL     1       3.437  58.299  -5.616  1.00  0.00     0.052 C 
HETATM    5  C5  UNL     1       3.650  58.212  -7.120  1.00  0.00     0.010 C 
HETATM    6  C6  UNL     1       4.298  56.839  -7.400  1.00  0.00     0.002 C 
HETATM    7  C7  UNL     1       3.441  55.883  -8.260  1.00  0.00    -0.004 C 
HETATM    8  C8  UNL     1       3.214  56.426  -9.678  1.00  0.00     0.010 C 
HETATM    9  C9  UNL     1       2.468  55.408 -10.532  1.00  0.00     0.035 C 
HETATM   10  C10 UNL     1       1.171  54.965  -9.896  1.00  0.00    -0.069 C 
HETATM   11  C11 UNL     1       0.043  54.953 -10.631  1.00  0.00     0.030 C 
HETATM   12  C12 UNL     1      -1.230  54.391 -10.116  1.00  0.00     0.032 C 
HETATM   13  N1  UNL     1      -2.259  54.392 -10.916  1.00  0.00    -0.271 N 
ATOM     14  H1  UNL     1      -2.257  54.806 -11.848  1.00  0.00     0.194 HD
HETATM   15  C22 UNL     1      -1.225  53.782  -8.731  1.00  0.00     0.060 C 
HETATM   16  C23 UNL     1      -0.205  54.474  -7.836  1.00  0.00     0.020 C 
HETATM   17  C24 UNL     1       1.234  54.512  -8.430  1.00  0.00    -0.016 C 
HETATM   18  C25 UNL     1       1.845  53.093  -8.391  1.00  0.00     0.020 C 
HETATM   19  C26 UNL     1       2.084  55.545  -7.592  1.00  0.00     0.002 C 
HETATM   20  C27 UNL     1       2.253  55.178  -6.099  1.00  0.00     0.007 C 
HETATM   21  C28 UNL     1       3.706  55.030  -5.657  1.00  0.00     0.014 C 
HETATM   22  C29 UNL     1       4.653  56.221  -6.010  1.00  0.00     0.003 C 
HETATM   23  C30 UNL     1       6.078  55.614  -6.041  1.00  0.00     0.020 C 
ENDROOT
BRANCH   3  24
HETATM   24  O1  UNL     1       4.176  57.015  -3.715  1.00  0.00    -0.377 OA
HETATM   25  H2  UNL     1       4.187  57.806  -3.149  1.00  0.00     0.211 HD
ENDBRANCH   3  24
BRANCH  13  26
HETATM   26  O2  UNL     1      -3.368  53.757 -10.341  1.00  0.00    -0.271 OA
BRANCH  26  27
HETATM   27  C13 UNL     1      -4.002  52.959 -11.336  1.00  0.00     0.303 C 
BRANCH  27  28
HETATM   28  C14 UNL     1      -3.039  51.949 -11.956  1.00  0.00     0.244 C 
HETATM   29  O3  UNL     1      -2.530  51.040 -11.302  1.00  0.00    -0.271 OA
HETATM   30  N2  UNL     1      -2.809  52.112 -13.306  1.00  0.00    -0.350 N 
HETATM   31  H16 UNL     1      -2.996  53.041 -13.671  1.00  0.00     0.163 HD
BRANCH  30  32
HETATM   32  C15 UNL     1      -1.808  51.318 -13.987  1.00  0.00     0.225 C 
BRANCH  32  33
HETATM   33  C16 UNL     1      -0.424  51.960 -13.859  1.00  0.00     0.236 C 
HETATM   34  O4  UNL     1      -0.216  52.962 -13.177  1.00  0.00    -0.272 OA
HETATM   35  N3  UNL     1       0.542  51.356 -14.634  1.00  0.00    -0.345 N 
HETATM   36  H19 UNL     1       0.379  50.395 -14.926  1.00  0.00     0.163 HD
BRANCH  35  37
HETATM   37  C17 UNL     1       1.955  51.744 -14.567  1.00  0.00     0.185 C 
BRANCH  37  38
HETATM   38  C18 UNL     1       2.721  50.774 -13.652  1.00  0.00     0.163 C 
HETATM   39  O5  UNL     1       3.368  51.066 -12.659  1.00  0.00    -0.648 OA
BRANCH  38  40
HETATM   40  O6  UNL     1       2.659  49.485 -14.065  1.00  0.00    -0.775 OA
HETATM   41  H21 UNL     1       3.169  48.998 -13.382  1.00  0.00     0.167 HD
ENDBRANCH  38  40
ENDBRANCH  37  38
BRANCH  37  42
HETATM   42  C19 UNL     1       2.619  51.797 -15.961  1.00  0.00     0.010 C 
HETATM   43  C20 UNL     1       1.751  52.504 -17.011  1.00  0.00     0.012 C 
HETATM   44  C21 UNL     1       4.003  52.452 -15.906  1.00  0.00     0.012 C 
ENDBRANCH  37  42
ENDBRANCH  35  37
ENDBRANCH  32  33
ENDBRANCH  30  32
ENDBRANCH  27  28
ENDBRANCH  26  27
ENDBRANCH  13  26
TORSDOF 10
ENDMDL
