MODEL 1
REMARK minimizedAffinity -9.13072681
REMARK  7 active torsions:
REMARK  status: ('A' for Active; 'I' for Inactive)
REMARK    1  A    between atoms: C4_4  and  C5_5 
REMARK    2  A    between atoms: C5_5  and  O1_6 
REMARK    3  A    between atoms: C5_5  and  C6_7 
REMARK    4  A    between atoms: C6_7  and  C7_8 
REMARK    5  A    between atoms: C7_8  and  C8_9 
REMARK    6  A    between atoms: C7_8  and  C9_11 
REMARK    7  A    between atoms: C8_9  and  O2_10 
ROOT
HETATM    1  C9  UNL     1      -3.461   7.593  14.527  1.00  0.00     0.001 C 
HETATM    2  C10 UNL     1      -4.187   8.472  13.462  1.00  0.00     0.007 C 
HETATM    3  C11 UNL     1      -3.152   8.877  12.402  1.00  0.00     0.015 C 
HETATM    4  C12 UNL     1      -1.790   8.498  13.013  1.00  0.00    -0.013 C 
HETATM    5  C13 UNL     1      -1.380   9.694  13.923  1.00  0.00     0.021 C 
HETATM    6  C14 UNL     1      -0.638   8.239  12.058  1.00  0.00    -0.070 C 
HETATM    7  C15 UNL     1      -0.614   8.639  10.777  1.00  0.00    -0.022 C 
HETATM    8  C16 UNL     1       0.502   8.239   9.868  1.00  0.00     0.034 C 
HETATM    9  C17 UNL     1       1.899   8.329  10.529  1.00  0.00     0.013 C 
HETATM   10  C18 UNL     1       3.012   7.666   9.646  1.00  0.00     0.018 C 
HETATM   11  C19 UNL     1       3.179   8.468   8.329  1.00  0.00     0.023 C 
HETATM   12  C20 UNL     1       2.728   6.206   9.249  1.00  0.00     0.023 C 
HETATM   13  C21 UNL     1       4.341   7.729  10.405  1.00  0.00     0.135 C 
HETATM   14  O3  UNL     1       5.381   8.143   9.882  1.00  0.00    -0.297 OA
HETATM   15  C22 UNL     1       4.384   7.231  11.829  1.00  0.00     0.080 C 
HETATM   16  C23 UNL     1       3.018   6.907  12.408  1.00  0.00     0.017 C 
HETATM   17  C24 UNL     1       1.916   7.947  12.077  1.00  0.00    -0.031 C 
HETATM   18  C25 UNL     1       2.263   9.254  12.855  1.00  0.00     0.016 C 
HETATM   19  C26 UNL     1       0.517   7.379  12.558  1.00  0.00     0.024 C 
HETATM   20  C27 UNL     1       0.439   7.063  14.076  1.00  0.00     0.010 C 
HETATM   21  C28 UNL     1      -0.957   6.741  14.652  1.00  0.00     0.011 C 
HETATM   22  C29 UNL     1      -2.152   7.169  13.774  1.00  0.00    -0.029 C 
HETATM   23  C30 UNL     1      -2.490   5.980  12.819  1.00  0.00     0.016 C 
ENDROOT
BRANCH   1  24
HETATM   24  C7  UNL     1      -4.418   6.512  15.140  1.00  0.00     0.017 C 
BRANCH  24  25
HETATM   25  C6  UNL     1      -4.431   5.252  14.213  1.00  0.00     0.043 C 
BRANCH  25  26
HETATM   26  C5  UNL     1      -5.737   4.807  13.529  1.00  0.00     0.141 C 
BRANCH  26  27
HETATM   27  C4  UNL     1      -5.577   3.660  12.567  1.00  0.00     0.006 C 
HETATM   28  C2  UNL     1      -6.489   2.705  12.284  1.00  0.00    -0.089 C 
HETATM   29  C1  UNL     1      -7.853   2.609  12.910  1.00  0.00     0.042 C 
HETATM   30  C3  UNL     1      -6.190   1.627  11.277  1.00  0.00     0.042 C 
ENDBRANCH  26  27
BRANCH  26  31
HETATM   31  O1  UNL     1      -6.372   5.894  12.869  1.00  0.00    -0.392 OA
HETATM   32  H9  UNL     1      -5.762   6.173  12.154  1.00  0.00     0.210 HD
ENDBRANCH  26  31
ENDBRANCH  25  26
ENDBRANCH  24  25
BRANCH  24  33
HETATM   33  C8  UNL     1      -5.829   7.060  15.384  1.00  0.00     0.169 C 
BRANCH  33  34
HETATM   34  O2  UNL     1      -6.419   6.410  16.508  1.00  0.00    -0.400 OA
HETATM   35  H15 UNL     1      -7.242   6.893  16.710  1.00  0.00     0.209 HD
ENDBRANCH  33  34
ENDBRANCH  24  33
ENDBRANCH   1  24
TORSDOF 7
ENDMDL
