MODEL 1
REMARK minimizedAffinity -7.1142087
REMARK CNNscore 0.511003256
REMARK CNNaffinity 7.04815912
REMARK  5 active torsions:
REMARK  status: ('A' for Active; 'I' for Inactive)
REMARK    1  A    between atoms: C11_11  and  O1_12 
REMARK    2  A    between atoms: C14_15  and  C15_16 
REMARK    3  A    between atoms: C17_18  and  C18_19 
REMARK    4  A    between atoms: C26_31  and  O6_32 
REMARK    5  A    between atoms: C36_44  and  O9_45 
ROOT
HETATM    1  C1  UNL     1      -1.102  51.050  -3.797  1.00  0.00     0.043 C 
HETATM    2  C2  UNL     1      -0.193  50.782  -4.963  1.00  0.00    -0.087 C 
HETATM    3  C3  UNL     1       0.466  51.738  -5.651  1.00  0.00    -0.022 C 
HETATM    4  C4  UNL     1       0.382  53.232  -5.486  1.00  0.00     0.059 C 
HETATM    5  C5  UNL     1       0.133  53.988  -6.807  1.00  0.00     0.131 C 
HETATM    6  C6  UNL     1      -1.163  53.575  -7.517  1.00  0.00     0.065 C 
HETATM    7  C7  UNL     1      -1.118  53.877  -9.019  1.00  0.00     0.139 C 
HETATM    8  C8  UNL     1      -0.152  55.026  -9.303  1.00  0.00     0.101 C 
HETATM    9  C9  UNL     1       1.271  54.733  -8.772  1.00  0.00     0.170 C 
HETATM   10  C10 UNL     1       2.169  54.133  -9.873  1.00  0.00     0.100 C 
HETATM   11  C11 UNL     1       2.976  55.231 -10.547  1.00  0.00     0.129 C 
HETATM   12  C12 UNL     1       3.905  55.931  -9.530  1.00  0.00     0.044 C 
HETATM   13  C13 UNL     1       5.299  55.298  -9.444  1.00  0.00     0.015 C 
HETATM   14  C14 UNL     1       3.227  55.947  -8.133  1.00  0.00     0.159 C 
HETATM   15  O2  UNL     1       1.806  55.991  -8.324  1.00  0.00    -0.345 OA
HETATM   16  O3  UNL     1       1.246  53.800  -7.684  1.00  0.00    -0.349 OA
HETATM   17  O4  UNL     1      -0.696  52.691  -9.727  1.00  0.00    -0.315 OA
HETATM   18  C21 UNL     1      -1.108  52.589 -11.026  1.00  0.00     0.270 C 
HETATM   19  O5  UNL     1      -1.895  53.364 -11.559  1.00  0.00    -0.264 OA
HETATM   20  C22 UNL     1      -0.371  51.447 -11.731  1.00  0.00     0.150 C 
HETATM   21  C23 UNL     1      -0.206  51.823 -13.191  1.00  0.00    -0.004 C 
HETATM   22  C24 UNL     1      -0.475  51.007 -14.226  1.00  0.00    -0.056 C 
HETATM   23  C25 UNL     1      -0.376  51.485 -15.649  1.00  0.00     0.046 C 
HETATM   24  C26 UNL     1      -0.953  49.600 -14.012  1.00  0.00     0.179 C 
HETATM   25  C27 UNL     1      -0.753  49.061 -12.588  1.00  0.00     0.205 C 
HETATM   26  O7  UNL     1       0.605  48.644 -12.359  1.00  0.00    -0.306 OA
HETATM   27  C28 UNL     1       0.807  48.635 -11.010  1.00  0.00     0.293 C 
HETATM   28  O8  UNL     1       1.774  48.169 -10.440  1.00  0.00    -0.259 OA
HETATM   29  C29 UNL     1      -0.350  49.324 -10.374  1.00  0.00     0.055 C 
HETATM   30  C30 UNL     1      -0.591  49.139  -9.068  1.00  0.00     0.016 C 
HETATM   31  C31 UNL     1      -1.678  49.721  -8.317  1.00  0.00    -0.003 C 
HETATM   32  C32 UNL     1      -1.939  49.509  -7.017  1.00  0.00    -0.022 C 
HETATM   33  C33 UNL     1      -1.201  48.615  -6.043  1.00  0.00     0.008 C 
HETATM   34  C34 UNL     1      -2.183  48.009  -5.030  1.00  0.00     0.014 C 
HETATM   35  C35 UNL     1      -0.006  49.321  -5.349  1.00  0.00     0.041 C 
HETATM   36  C36 UNL     1      -1.049  50.068 -11.479  1.00  0.00     0.136 C 
ENDROOT
BRANCH  11  37
HETATM   37  O1  UNL     1       3.693  54.684 -11.646  1.00  0.00    -0.395 OA
HETATM   38  H16 UNL     1       4.117  55.419 -12.120  1.00  0.00     0.210 HD
ENDBRANCH  11  37
BRANCH  14  39
HETATM   39  C15 UNL     1       3.587  57.064  -7.150  1.00  0.00    -0.058 C 
HETATM   40  C16 UNL     1       2.557  58.171  -7.135  1.00  0.00     0.046 C 
HETATM   41  C17 UNL     1       4.674  57.060  -6.348  1.00  0.00    -0.018 C 
BRANCH  41  42
HETATM   42  C18 UNL     1       5.105  58.113  -5.350  1.00  0.00     0.000 C 
HETATM   43  C19 UNL     1       4.547  57.777  -3.967  1.00  0.00     0.013 C 
HETATM   44  C20 UNL     1       6.631  58.200  -5.301  1.00  0.00     0.013 C 
ENDBRANCH  41  42
ENDBRANCH  14  39
BRANCH  36  45
HETATM   45  O9  UNL     1      -2.457  50.168 -11.299  1.00  0.00    -0.381 OA
HETATM   46  H50 UNL     1      -2.785  49.335 -10.911  1.00  0.00     0.211 HD
ENDBRANCH  36  45
BRANCH  24  47
HETATM   47  O6  UNL     1      -0.290  48.730 -14.929  1.00  0.00    -0.388 OA
HETATM   48  H39 UNL     1       0.621  48.623 -14.592  1.00  0.00     0.210 HD
ENDBRANCH  24  47
TORSDOF 5
ENDMDL
