MODEL 1
REMARK minimizedAffinity -9.34457207
REMARK CNNscore 0.724108636
REMARK CNNaffinity 7.06511545
REMARK  6 active torsions:
REMARK  status: ('A' for Active; 'I' for Inactive)
REMARK    1  A    between atoms: C4_4  and  C5_5 
REMARK    2  A    between atoms: C5_5  and  C6_6 
REMARK    3  A    between atoms: C6_6  and  C7_7 
REMARK    4  A    between atoms: C7_7  and  C9_9 
REMARK    5  A    between atoms: C16_16  and  O1_17 
REMARK    6  A    between atoms: C19_20  and  O2_21 
ROOT
HETATM    1  C9  UNL     1      -2.771   8.473  15.259  1.00  0.00    -0.002 C 
HETATM    2  C10 UNL     1      -1.823   7.735  16.243  1.00  0.00     0.006 C 
HETATM    3  C11 UNL     1      -0.444   7.629  15.555  1.00  0.00     0.011 C 
HETATM    4  C12 UNL     1      -0.793   7.550  14.063  1.00  0.00    -0.032 C 
HETATM    5  C13 UNL     1      -1.281   6.093  13.806  1.00  0.00     0.016 C 
HETATM    6  C14 UNL     1       0.331   7.883  13.044  1.00  0.00     0.006 C 
HETATM    7  C15 UNL     1       1.610   7.053  13.183  1.00  0.00     0.038 C 
HETATM    8  C16 UNL     1       2.660   7.575  12.203  1.00  0.00     0.123 C 
HETATM    9  C17 UNL     1       2.243   7.407  10.728  1.00  0.00     0.026 C 
HETATM   10  C18 UNL     1       3.168   8.261   9.843  1.00  0.00     0.039 C 
HETATM   11  C19 UNL     1       2.882   8.066   8.355  1.00  0.00     0.118 C 
HETATM   12  C20 UNL     1       1.391   7.947   8.035  1.00  0.00     0.032 C 
HETATM   13  C21 UNL     1       0.522   8.503   9.162  1.00  0.00     0.013 C 
HETATM   14  C22 UNL     1       0.762   7.732  10.453  1.00  0.00    -0.025 A 
HETATM   15  C23 UNL     1      -0.204   6.608  10.766  1.00  0.00     0.021 A 
HETATM   16  C24 UNL     1      -0.251   7.862  11.614  1.00  0.00    -0.027 A 
HETATM   17  C25 UNL     1      -1.507   8.735  11.437  1.00  0.00     0.011 C 
HETATM   18  C26 UNL     1      -2.552   8.586  12.568  1.00  0.00     0.011 C 
HETATM   19  C27 UNL     1      -1.904   8.664  13.961  1.00  0.00    -0.032 C 
HETATM   20  C28 UNL     1      -1.350  10.134  14.101  1.00  0.00     0.016 C 
ENDROOT
BRANCH   1  21
HETATM   21  C7  UNL     1      -4.240   7.981  15.120  1.00  0.00    -0.014 C 
HETATM   22  C8  UNL     1      -5.102   8.645  14.047  1.00  0.00     0.010 C 
BRANCH  21  23
HETATM   23  C6  UNL     1      -4.340   6.434  15.003  1.00  0.00     0.008 C 
BRANCH  23  24
HETATM   24  C5  UNL     1      -4.820   5.883  13.658  1.00  0.00     0.028 C 
BRANCH  24  25
HETATM   25  C4  UNL     1      -6.083   5.081  13.825  1.00  0.00    -0.025 C 
HETATM   26  C2  UNL     1      -6.511   4.056  13.063  1.00  0.00    -0.091 C 
HETATM   27  C1  UNL     1      -5.758   3.469  11.901  1.00  0.00     0.042 C 
HETATM   28  C3  UNL     1      -7.832   3.387  13.347  1.00  0.00     0.042 C 
ENDBRANCH  24  25
ENDBRANCH  23  24
ENDBRANCH  21  23
ENDBRANCH   1  21
BRANCH   8  29
HETATM   29  O1  UNL     1       3.886   6.877  12.438  1.00  0.00    -0.395 OA
HETATM   30  H28 UNL     1       3.714   5.925  12.333  1.00  0.00     0.210 HD
ENDBRANCH   8  29
BRANCH  11  31
HETATM   31  O2  UNL     1       3.441   9.177   7.653  1.00  0.00    -0.396 OA
HETATM   32  H33 UNL     1       3.306   9.024   6.703  1.00  0.00     0.210 HD
ENDBRANCH  11  31
TORSDOF 6
ENDMDL
