MODEL 1
REMARK minimizedAffinity -8.27049637
REMARK CNNscore 0.265923589
REMARK CNNaffinity 8.07163429
REMARK  9 active torsions:
REMARK  status: ('A' for Active; 'I' for Inactive)
REMARK    1  A    between atoms: C13_13  and  S1_14 
REMARK    2  A    between atoms: C25_30  and  O5_31 
REMARK    3  A    between atoms: C31_37  and  C32_38 
REMARK    4  A    between atoms: C32_38  and  O6_39 
REMARK    5  A    between atoms: C40_47  and  C41_48 
REMARK    6  A    between atoms: C40_47  and  N1_57 
REMARK    7  A    between atoms: C41_48  and  C42_49 
REMARK    8  A    between atoms: C42_49  and  C43_50 
REMARK    9  A    between atoms: C43_50  and  O7_51 
REMARK       I    between atoms: C49_59  and  N2_60 
REMARK       I    between atoms: C49_59  and  N3_61 
ROOT
HETATM    1  C1  UNL     1      -3.729   3.698  13.775  1.00  0.00     0.010 C 
HETATM    2  C2  UNL     1      -3.559   4.920  12.862  1.00  0.00    -0.010 C 
HETATM    3  C3  UNL     1      -4.940   5.642  12.700  1.00  0.00     0.009 C 
HETATM    4  C4  UNL     1      -4.977   7.124  13.121  1.00  0.00     0.039 C 
HETATM    5  C5  UNL     1      -4.205   7.353  14.394  1.00  0.00    -0.049 C 
HETATM    6  C6  UNL     1      -4.475   8.400  15.274  1.00  0.00     0.044 C 
HETATM    7  C7  UNL     1      -3.595   8.613  16.340  1.00  0.00     0.072 C 
HETATM    8  C8  UNL     1      -2.703   7.623  16.738  1.00  0.00     0.037 C 
HETATM    9  C9  UNL     1      -2.414   6.602  15.844  1.00  0.00     0.011 C 
HETATM   10  C10 UNL     1      -3.044   6.591  14.594  1.00  0.00    -0.047 C 
HETATM   11  C11 UNL     1      -2.484   5.908  13.347  1.00  0.00     0.024 C 
HETATM   12  C12 UNL     1      -1.008   5.493  13.510  1.00  0.00     0.033 C 
HETATM   13  C13 UNL     1      -0.085   5.378  12.270  1.00  0.00     0.139 C 
HETATM   14  C14 UNL     1      -0.062   6.523  11.169  1.00  0.00     0.038 C 
HETATM   15  C15 UNL     1       1.135   6.305  10.211  1.00  0.00    -0.014 C 
HETATM   16  C16 UNL     1       1.715   7.268   9.465  1.00  0.00    -0.050 C 
HETATM   17  C17 UNL     1       1.073   8.609   9.411  1.00  0.00     0.042 C 
HETATM   18  C18 UNL     1       0.996   8.987  10.879  1.00  0.00     0.001 C 
HETATM   19  C19 UNL     1       2.397   8.821  11.561  1.00  0.00     0.038 C 
HETATM   20  C20 UNL     1       3.621   9.119  10.639  1.00  0.00     0.130 C 
HETATM   21  O4  UNL     1       3.992   8.175   9.607  1.00  0.00    -0.371 OA
HETATM   22  C21 UNL     1       3.124   7.243   8.933  1.00  0.00     0.185 C 
HETATM   23  C22 UNL     1       3.753   5.843   8.843  1.00  0.00    -0.006 A 
HETATM   24  C23 UNL     1       3.373   5.028   7.754  1.00  0.00     0.014 A 
HETATM   25  C24 UNL     1       3.803   3.705   7.655  1.00  0.00     0.037 A 
HETATM   26  C25 UNL     1       4.615   3.171   8.647  1.00  0.00     0.067 A 
HETATM   27  C26 UNL     1       5.020   3.947   9.727  1.00  0.00     0.057 A 
HETATM   28  C27 UNL     1       4.597   5.274   9.828  1.00  0.00     0.029 A 
HETATM   29  C28 UNL     1       5.029   6.034  10.961  1.00  0.00    -0.066 C 
HETATM   30  C29 UNL     1       5.260   6.910  11.749  1.00  0.00    -0.101 C 
HETATM   31  C30 UNL     1       5.298   8.199  12.443  1.00  0.00     0.103 C 
HETATM   32  C31 UNL     1       4.935   9.358  11.472  1.00  0.00     0.049 C 
HETATM   33  C33 UNL     1      -0.148   8.101  11.515  1.00  0.00     0.030 C 
HETATM   34  C34 UNL     1      -0.599   8.745  12.818  1.00  0.00    -0.057 A 
HETATM   35  C35 UNL     1       0.120   8.703  14.013  1.00  0.00     0.005 A 
HETATM   36  C36 UNL     1      -0.362   9.343  15.177  1.00  0.00     0.010 A 
HETATM   37  C37 UNL     1      -1.575  10.058  15.176  1.00  0.00    -0.007 A 
HETATM   38  C38 UNL     1      -2.224  10.197  13.937  1.00  0.00     0.096 A 
HETATM   39  C39 UNL     1      -1.754   9.548  12.792  1.00  0.00     0.092 A 
HETATM   40  C40 UNL     1      -2.289  10.649  16.452  1.00  0.00     0.168 C 
HETATM   41  O8  UNL     1      -3.502   9.881  16.849  1.00  0.00    -0.316 OA
HETATM   42 NA1  UNL     1      -0.394   8.644  13.830  1.00  0.00    -0.355 Na
ATOM     43 1HA1 UNL     1       0.582   8.402  14.003  1.00  0.00     0.103 HD
ATOM     44 2HA1 UNL     1       0.070   7.790  14.139  1.00  0.00     0.103 HD
ENDROOT
BRANCH  40  45
HETATM   45  C41 UNL     1      -1.393  10.670  17.737  1.00  0.00     0.070 C 
BRANCH  45  46
HETATM   46  C42 UNL     1      -0.032  11.402  17.687  1.00  0.00     0.043 C 
BRANCH  46  47
HETATM   47  C43 UNL     1       1.096  11.124  18.712  1.00  0.00     0.058 C 
HETATM   48  C44 UNL     1       0.608  10.777  20.123  1.00  0.00     0.038 C 
HETATM   49  C45 UNL     1       1.756  10.377  21.058  1.00  0.00     0.003 C 
HETATM   50  C46 UNL     1       2.978  11.286  20.957  1.00  0.00     0.000 C 
HETATM   51  C47 UNL     1       2.745  12.527  20.106  1.00  0.00     0.003 C 
HETATM   52  C48 UNL     1       2.202  12.197  18.716  1.00  0.00     0.038 C 
BRANCH  47  53
HETATM   53  O7  UNL     1       1.743   9.911  18.230  1.00  0.00    -0.390 OA
HETATM   54  H44 UNL     1       1.069   9.209  18.224  1.00  0.00     0.210 HD
ENDBRANCH  47  53
ENDBRANCH  46  47
ENDBRANCH  45  46
ENDBRANCH  40  45
BRANCH  40  55
HETATM   55  N1  UNL     1      -2.658  12.054  16.159  1.00  0.00    -0.336 N 
HETATM   56  C49 UNL     1      -3.829  12.479  15.903  1.00  0.00     0.124 C 
HETATM   57  N2  UNL     1      -4.007  13.800  15.675  1.00  0.00    -0.279 NA
HETATM   58  N3  UNL     1      -5.022  11.855  15.802  1.00  0.00    -0.279 NA
HETATM   59  H55 UNL     1      -3.101  14.263  15.622  1.00  0.00     0.126 HD
HETATM   60  H56 UNL     1      -4.537  13.974  14.831  1.00  0.00     0.126 HD
HETATM   61  H57 UNL     1      -5.760  12.438  16.179  1.00  0.00     0.126 HD
HETATM   62  H58 UNL     1      -5.053  10.960  16.272  1.00  0.00     0.126 HD
ATOM     63  H1  UNL     1      -1.905  12.742  16.162  1.00  0.00     0.165 HD
ENDBRANCH  40  55
BRANCH  13  64
HETATM   64  S1  UNL     1      -0.335   3.699  11.497  1.00  0.00     0.106 S 
HETATM   65  O1  UNL     1      -1.368   3.903  10.486  1.00  0.00    -0.595 OA
HETATM   66  O2  UNL     1       0.956   3.360  10.900  1.00  0.00    -0.595 OA
HETATM   67  O3  UNL     1      -0.726   2.842  12.615  1.00  0.00    -0.595 OA
ENDBRANCH  13  64
BRANCH  32  68
HETATM   68  C32 UNL     1       4.875  10.681  12.245  1.00  0.00     0.172 C 
BRANCH  68  69
HETATM   69  O6  UNL     1       5.622  11.675  11.552  1.00  0.00    -0.400 OA
HETATM   70  H34 UNL     1       5.580  12.488  12.084  1.00  0.00     0.209 HD
ENDBRANCH  68  69
ENDBRANCH  32  68
BRANCH  26  71
HETATM   71  O5  UNL     1       4.981   1.861   8.541  1.00  0.00    -0.361 OA
HETATM   72  H27 UNL     1       5.191   1.552   9.442  1.00  0.00     0.217 HD
ENDBRANCH  26  71
TORSDOF 9
ENDMDL
