MODEL 1
REMARK minimizedAffinity -8.72297001
REMARK  12 active torsions:
REMARK  status: ('A' for Active; 'I' for Inactive)
REMARK    1  A    between atoms: C2_2  and  O1_3 
REMARK    2  A    between atoms: C2_2  and  C3_4 
REMARK    3  A    between atoms: C4_5  and  C5_6 
REMARK    4  A    between atoms: C5_6  and  O2_7 
REMARK    5  A    between atoms: C8_10  and  O3_11 
REMARK    6  A    between atoms: O3_11  and  C9_12 
REMARK    7  A    between atoms: C10_14  and  C11_15 
REMARK    8  A    between atoms: C11_15  and  O5_16 
REMARK    9  A    between atoms: C12_17  and  O6_18 
REMARK   10  A    between atoms: C13_19  and  O7_20 
REMARK   11  A    between atoms: C14_21  and  O8_22 
REMARK   12  A    between atoms: C15_23  and  O9_24 
ROOT
HETATM    1  C5  UNL     1      -2.117  50.698 -20.869  1.00  0.00     0.088 C 
HETATM    2  C6  UNL     1      -1.317  51.369 -22.031  1.00  0.00     0.052 C 
HETATM    3  C7  UNL     1       0.186  51.577 -21.775  1.00  0.00     0.016 C 
HETATM    4  C8  UNL     1      -1.498  50.660 -23.402  1.00  0.00     0.160 C 
HETATM    5  C15 UNL     1      -2.810  49.855 -23.478  1.00  0.00     0.148 C 
HETATM    6  C16 UNL     1      -2.931  48.796 -22.368  1.00  0.00     0.046 C 
HETATM    7  C17 UNL     1      -2.228  49.139 -21.021  1.00  0.00    -0.010 C 
HETATM    8  C18 UNL     1      -3.078  48.512 -19.884  1.00  0.00     0.018 C 
HETATM    9  C19 UNL     1      -0.858  48.424 -20.981  1.00  0.00     0.018 C 
ENDROOT
BRANCH   4  10
HETATM   10  O3  UNL     1      -1.442  51.713 -24.387  1.00  0.00    -0.350 OA
BRANCH  10  11
HETATM   11  C9  UNL     1      -0.774  51.370 -25.600  1.00  0.00     0.292 C 
HETATM   12  O4  UNL     1       0.568  51.854 -25.545  1.00  0.00    -0.348 OA
HETATM   13  C10 UNL     1       0.709  53.279 -25.536  1.00  0.00     0.179 C 
HETATM   14  C12 UNL     1      -0.374  54.050 -26.319  1.00  0.00     0.180 C 
HETATM   15  C13 UNL     1      -0.909  53.154 -27.435  1.00  0.00     0.183 C 
HETATM   16  C14 UNL     1      -1.567  51.922 -26.810  1.00  0.00     0.204 C 
BRANCH  13  17
HETATM   17  C11 UNL     1       0.846  53.816 -24.104  1.00  0.00     0.198 C 
BRANCH  17  18
HETATM   18  O5  UNL     1       1.363  55.149 -24.117  1.00  0.00    -0.398 OA
HETATM   19  H18 UNL     1       2.285  55.099 -23.806  1.00  0.00     0.209 HD
ENDBRANCH  17  18
ENDBRANCH  13  17
BRANCH  14  20
HETATM   20  O6  UNL     1       0.196  55.259 -26.842  1.00  0.00    -0.390 OA
HETATM   21  H20 UNL     1       0.464  55.780 -26.058  1.00  0.00     0.210 HD
ENDBRANCH  14  20
BRANCH  15  22
HETATM   22  O7  UNL     1      -1.901  53.836 -28.221  1.00  0.00    -0.390 OA
HETATM   23  H22 UNL     1      -2.138  53.209 -28.933  1.00  0.00     0.210 HD
ENDBRANCH  15  22
BRANCH  16  24
HETATM   24  O8  UNL     1      -1.734  50.923 -27.836  1.00  0.00    -0.388 OA
HETATM   25  H24 UNL     1      -2.175  50.174 -27.381  1.00  0.00     0.210 HD
ENDBRANCH  16  24
ENDBRANCH  10  11
ENDBRANCH   4  10
BRANCH   5  26
HETATM   26  O9  UNL     1      -2.930  49.163 -24.737  1.00  0.00    -0.393 OA
HETATM   27  H26 UNL     1      -3.771  48.666 -24.691  1.00  0.00     0.210 HD
ENDBRANCH   5  26
BRANCH   1  28
HETATM   28  C4  UNL     1      -1.639  51.173 -19.505  1.00  0.00     0.010 C 
HETATM   29  C3  UNL     1      -0.364  51.486 -19.204  1.00  0.00     0.003 C 
BRANCH  29  30
HETATM   30  C2  UNL     1       0.108  51.947 -17.858  1.00  0.00     0.136 C 
HETATM   31  C1  UNL     1       0.560  50.781 -16.992  1.00  0.00     0.043 C 
BRANCH  30  32
HETATM   32  O1  UNL     1       1.205  52.831 -18.069  1.00  0.00    -0.392 OA
HETATM   33  H5  UNL     1       1.947  52.306 -18.414  1.00  0.00     0.210 HD
ENDBRANCH  30  32
ENDBRANCH  29  30
ENDBRANCH   1  28
BRANCH   1  34
HETATM   34  O2  UNL     1      -3.470  51.195 -21.012  1.00  0.00    -0.385 OA
HETATM   35  H8  UNL     1      -3.916  51.080 -20.155  1.00  0.00     0.211 HD
ENDBRANCH   1  34
TORSDOF 12
ENDMDL
