MODEL 1
REMARK minimizedAffinity -8.79655266
REMARK CNNscore 0.681896925
REMARK CNNaffinity 7.21550226
REMARK  8 active torsions:
REMARK  status: ('A' for Active; 'I' for Inactive)
REMARK    1  A    between atoms: C4_4  and  C5_5 
REMARK    2  A    between atoms: C5_5  and  C6_6 
REMARK    3  A    between atoms: C6_6  and  C7_7 
REMARK    4  A    between atoms: C7_7  and  C9_9 
REMARK    5  A    between atoms: C25_26  and  C27_28 
REMARK    6  A    between atoms: C27_28  and  O3_30 
REMARK    7  A    between atoms: C28_31  and  O4_32 
REMARK    8  A    between atoms: C30_34  and  O5_35 
ROOT
HETATM    1  C9  UNL     1      -5.519   6.860  14.611  1.00  0.00    -0.002 C 
HETATM    2  C10 UNL     1      -5.237   8.164  15.415  1.00  0.00     0.007 C 
HETATM    3  C11 UNL     1      -3.831   8.655  15.024  1.00  0.00     0.015 C 
HETATM    4  C12 UNL     1      -3.448   7.839  13.775  1.00  0.00    -0.005 C 
HETATM    5  C13 UNL     1      -4.095   8.554  12.547  1.00  0.00     0.021 C 
HETATM    6  C14 UNL     1      -1.984   7.662  13.382  1.00  0.00    -0.000 C 
HETATM    7  C15 UNL     1      -1.551   6.536  12.748  1.00  0.00    -0.058 C 
HETATM    8  C16 UNL     1      -2.524   5.392  12.451  1.00  0.00     0.036 C 
HETATM    9  C17 UNL     1      -3.986   5.553  12.911  1.00  0.00     0.015 C 
HETATM   10  C18 UNL     1      -4.088   6.443  14.153  1.00  0.00    -0.028 C 
HETATM   11  C19 UNL     1      -3.359   5.730  15.337  1.00  0.00     0.016 C 
HETATM   12  C20 UNL     1      -0.050   6.316  12.343  1.00  0.00     0.011 C 
HETATM   13  C21 UNL     1       0.587   5.667  13.592  1.00  0.00     0.023 C 
HETATM   14  C22 UNL     1       0.510   7.735  11.982  1.00  0.00     0.029 C 
HETATM   15  C23 UNL     1       0.394   8.689  13.172  1.00  0.00     0.090 C 
HETATM   16  C24 UNL     1      -1.034   8.792  13.655  1.00  0.00     0.157 C 
HETATM   17  O1  UNL     1      -1.395   9.796  14.268  1.00  0.00    -0.293 OA
HETATM   18  C25 UNL     1       1.849   7.805  11.148  1.00  0.00     0.072 C 
HETATM   19  C26 UNL     1       1.466   8.378   9.745  1.00  0.00     0.030 C 
HETATM   20  C28 UNL     1       2.524   6.441  10.894  1.00  0.00     0.139 C 
HETATM   21  C29 UNL     1       1.563   5.326  10.498  1.00  0.00     0.065 C 
HETATM   22  C30 UNL     1       0.139   5.418  11.071  1.00  0.00     0.133 C 
ENDROOT
BRANCH   1  23
HETATM   23  C7  UNL     1      -6.398   5.864  15.422  1.00  0.00    -0.014 C 
HETATM   24  C8  UNL     1      -7.042   6.563  16.634  1.00  0.00     0.010 C 
BRANCH  23  25
HETATM   25  C6  UNL     1      -7.491   5.135  14.608  1.00  0.00     0.008 C 
BRANCH  25  26
HETATM   26  C5  UNL     1      -7.954   5.861  13.340  1.00  0.00     0.028 C 
BRANCH  26  27
HETATM   27  C4  UNL     1      -9.444   6.074  13.347  1.00  0.00    -0.025 C 
HETATM   28  C2  UNL     1     -10.131   7.080  13.923  1.00  0.00    -0.091 C 
HETATM   29  C1  UNL     1      -9.521   8.181  14.748  1.00  0.00     0.042 C 
HETATM   30  C3  UNL     1     -11.627   7.175  13.773  1.00  0.00     0.042 C 
ENDBRANCH  26  27
ENDBRANCH  25  26
ENDBRANCH  23  25
ENDBRANCH   1  23
BRANCH  22  31
HETATM   31  O5  UNL     1      -0.311   4.073  11.254  1.00  0.00    -0.394 OA
HETATM   32  H46 UNL     1       0.249   3.652  11.929  1.00  0.00     0.210 HD
ENDBRANCH  22  31
BRANCH  18  33
HETATM   33  C27 UNL     1       2.927   8.757  11.686  1.00  0.00     0.151 C 
HETATM   34  O2  UNL     1       2.753   9.629  12.530  1.00  0.00    -0.649 OA
BRANCH  33  35
HETATM   35  O3  UNL     1       4.148   8.615  11.142  1.00  0.00    -0.776 OA
HETATM   36  H40 UNL     1       4.682   9.317  11.571  1.00  0.00     0.167 HD
ENDBRANCH  33  35
ENDBRANCH  18  33
BRANCH  20  37
HETATM   37  O4  UNL     1       3.258   5.995  12.033  1.00  0.00    -0.394 OA
HETATM   38  H42 UNL     1       3.889   5.315  11.736  1.00  0.00     0.210 HD
ENDBRANCH  20  37
TORSDOF 8
ENDMDL
