MODEL 1
REMARK minimizedAffinity -7.03619099
REMARK CNNscore 0.536880732
REMARK CNNaffinity 6.01623106
REMARK  5 active torsions:
REMARK  status: ('A' for Active; 'I' for Inactive)
REMARK    1  A    between atoms: C3_3  and  C4_4 
REMARK    2  A    between atoms: C4_4  and  O2_6 
REMARK    3  A    between atoms: O2_6  and  C5_7 
REMARK    4  A    between atoms: C5_7  and  C6_8 
REMARK    5  A    between atoms: C12_14  and  C13_15 
ROOT
HETATM    1  C1  UNL     1       1.429  53.614  -4.316  1.00  0.00     0.069 C 
HETATM    2  C2  UNL     1       1.599  53.904  -5.783  1.00  0.00     0.018 C 
HETATM    3  C3  UNL     1       0.874  54.808  -6.477  1.00  0.00     0.052 C 
HETATM    4  C12 UNL     1       1.100  55.079  -7.958  1.00  0.00     0.104 C 
HETATM    5  C22 UNL     1       2.342  54.350  -8.480  1.00  0.00     0.024 C 
HETATM    6  C23 UNL     1       3.013  53.456  -7.723  1.00  0.00     0.020 C 
HETATM    7  C24 UNL     1       4.258  52.750  -8.200  1.00  0.00     0.058 C 
HETATM    8  C25 UNL     1       4.985  53.555  -9.270  1.00  0.00     0.014 C 
HETATM    9  C26 UNL     1       4.032  53.938 -10.393  1.00  0.00     0.084 C 
HETATM   10  C27 UNL     1       2.820  54.670  -9.857  1.00  0.00     0.158 C 
HETATM   11  O5  UNL     1       2.207  55.473 -10.560  1.00  0.00    -0.293 OA
HETATM   12  N1  UNL     1       2.592  53.186  -6.434  1.00  0.00    -0.362 N 
HETATM   13  H22 UNL     1       3.193  52.607  -5.856  1.00  0.00     0.165 HD
ENDROOT
BRANCH   4  14
HETATM   14  C13 UNL     1      -0.140  54.739  -8.766  1.00  0.00     0.029 A 
HETATM   15  C14 UNL     1      -0.822  55.581  -9.560  1.00  0.00     0.154 A 
HETATM   16  O3  UNL     1      -1.950  55.295 -10.289  1.00  0.00    -0.321 OA
HETATM   17  C15 UNL     1      -2.485  54.037 -10.160  1.00  0.00     0.089 A 
HETATM   18  C16 UNL     1      -3.667  53.773 -10.854  1.00  0.00     0.040 A 
HETATM   19  C20 UNL     1      -1.894  53.041  -9.386  1.00  0.00     0.050 A 
HETATM   20  C17 UNL     1      -4.252  52.505 -10.771  1.00  0.00     0.026 A 
HETATM   21  C18 UNL     1      -3.647  51.509 -10.000  1.00  0.00     0.035 A 
HETATM   22 CL1  UNL     1      -4.361  49.944  -9.916  1.00  0.00    -0.084 Cl
HETATM   23  C19 UNL     1      -2.470  51.770  -9.301  1.00  0.00     0.042 A 
HETATM   24  C21 UNL     1      -0.639  53.344  -8.677  1.00  0.00     0.194 A 
HETATM   25  O4  UNL     1      -0.033  52.473  -8.065  1.00  0.00    -0.287 OA
ENDBRANCH   4  14
BRANCH   3  26
HETATM   26  C4  UNL     1      -0.133  55.634  -5.793  1.00  0.00     0.292 C 
HETATM   27  O1  UNL     1      -1.139  55.181  -5.264  1.00  0.00    -0.259 OA
BRANCH  26  28
HETATM   28  O2  UNL     1       0.213  56.937  -5.932  1.00  0.00    -0.313 OA
BRANCH  28  29
HETATM   29  C5  UNL     1       1.246  57.395  -5.055  1.00  0.00     0.217 C 
BRANCH  29  30
HETATM   30  C6  UNL     1       2.564  57.369  -5.793  1.00  0.00    -0.034 A 
HETATM   31  C7  UNL     1       2.672  57.964  -7.059  1.00  0.00     0.009 A 
HETATM   32  C8  UNL     1       3.872  57.908  -7.771  1.00  0.00     0.001 A 
HETATM   33  C9  UNL     1       4.978  57.258  -7.226  1.00  0.00     0.000 A 
HETATM   34  C10 UNL     1       4.888  56.672  -5.960  1.00  0.00     0.001 A 
HETATM   35  C11 UNL     1       3.687  56.729  -5.247  1.00  0.00     0.009 A 
ENDBRANCH  29  30
ENDBRANCH  28  29
ENDBRANCH  26  28
ENDBRANCH   3  26
TORSDOF 5
ENDMDL
