MODEL 1
REMARK minimizedAffinity -9.87632465
REMARK  4 active torsions:
REMARK  status: ('A' for Active; 'I' for Inactive)
REMARK    1  A    between atoms: C2_2  and  C4_4 
REMARK    2  A    between atoms: C4_4  and  C5_5 
REMARK    3  A    between atoms: C5_5  and  O1_6 
REMARK    4  A    between atoms: C8_9  and  C9_10 
ROOT
HETATM    1  C9  UNL     1      -3.361   8.141  15.059  1.00  0.00     0.001 C 
HETATM    2  C10 UNL     1      -2.441   7.792  16.259  1.00  0.00     0.007 C 
HETATM    3  C11 UNL     1      -1.038   7.510  15.687  1.00  0.00     0.011 C 
HETATM    4  C12 UNL     1      -1.076   8.050  14.242  1.00  0.00    -0.032 C 
HETATM    5  C13 UNL     1      -0.792   9.582  14.342  1.00  0.00     0.016 C 
HETATM    6  C14 UNL     1      -0.070   7.376  13.272  1.00  0.00     0.004 C 
HETATM    7  C15 UNL     1       1.399   7.740  13.532  1.00  0.00     0.007 C 
HETATM    8  C16 UNL     1       2.312   6.957  12.589  1.00  0.00     0.007 C 
HETATM    9  C17 UNL     1       2.129   7.448  11.145  1.00  0.00     0.010 C 
HETATM   10  C18 UNL     1       2.980   6.687  10.074  1.00  0.00     0.018 C 
HETATM   11  C19 UNL     1       2.919   5.156  10.205  1.00  0.00     0.023 C 
HETATM   12  C20 UNL     1       4.454   7.126  10.163  1.00  0.00     0.023 C 
HETATM   13  C21 UNL     1       2.482   7.081   8.672  1.00  0.00     0.135 C 
HETATM   14  O2  UNL     1       2.732   6.414   7.666  1.00  0.00    -0.297 OA
HETATM   15  C22 UNL     1       1.742   8.390   8.562  1.00  0.00     0.080 C 
HETATM   16  C23 UNL     1       0.488   8.363   9.427  1.00  0.00     0.018 C 
HETATM   17  C24 UNL     1       0.661   7.551  10.710  1.00  0.00    -0.026 A 
HETATM   18  C25 UNL     1      -0.270   6.376  10.894  1.00  0.00     0.021 A 
HETATM   19  C26 UNL     1      -0.459   7.589  11.787  1.00  0.00    -0.027 A 
HETATM   20  C27 UNL     1      -1.684   8.464  11.503  1.00  0.00     0.011 C 
HETATM   21  C28 UNL     1      -2.861   8.384  12.493  1.00  0.00     0.011 C 
HETATM   22  C29 UNL     1      -2.544   7.669  13.814  1.00  0.00    -0.032 C 
HETATM   23  C30 UNL     1      -2.757   6.145  13.588  1.00  0.00     0.016 C 
ENDROOT
BRANCH   1  24
HETATM   24  C8  UNL     1      -4.850   7.757  15.274  1.00  0.00     0.014 C 
HETATM   25  C7  UNL     1      -5.843   8.779  14.718  1.00  0.00     0.010 C 
HETATM   26  C6  UNL     1      -7.246   8.430  15.205  1.00  0.00     0.041 C 
HETATM   27  C4  UNL     1      -7.633   6.953  14.911  1.00  0.00     0.085 C 
HETATM   28  O3  UNL     1      -6.548   6.249  14.271  1.00  0.00    -0.377 OA
HETATM   29  C31 UNL     1      -5.269   6.326  14.907  1.00  0.00     0.174 C 
BRANCH  27  30
HETATM   30  C2  UNL     1      -8.846   6.913  13.910  1.00  0.00     0.014 C 
HETATM   31  C1  UNL     1     -10.228   6.949  14.579  1.00  0.00     0.012 C 
HETATM   32  C3  UNL     1      -8.809   5.670  13.001  1.00  0.00     0.012 C 
ENDBRANCH  27  30
BRANCH  27  33
HETATM   33  C5  UNL     1      -7.972   6.246  16.255  1.00  0.00     0.202 C 
BRANCH  33  34
HETATM   34  O1  UNL     1      -8.014   4.827  16.123  1.00  0.00    -0.398 OA
HETATM   35  H10 UNL     1      -7.395   4.609  15.401  1.00  0.00     0.209 HD
ENDBRANCH  33  34
ENDBRANCH  27  33
ENDBRANCH   1  24
TORSDOF 4
ENDMDL
