MODEL 1
REMARK minimizedAffinity -7.85938454
REMARK CNNscore 0.376128137
REMARK CNNaffinity 6.65589523
REMARK  13 active torsions:
REMARK  status: ('A' for Active; 'I' for Inactive)
REMARK    1  A    between atoms: C3_3  and  O1_4 
REMARK    2  A    between atoms: N1_14  and  O2_16 
REMARK    3  A    between atoms: O2_16  and  C13_17 
REMARK    4  A    between atoms: C13_17  and  C14_18 
REMARK       I    between atoms: C14_18  and  N2_20 
REMARK    5  A    between atoms: N2_20  and  C15_21 
REMARK    6  A    between atoms: C15_21  and  C16_22 
REMARK    7  A    between atoms: C15_21  and  C21_32 
REMARK       I    between atoms: C16_22  and  N3_24 
REMARK    8  A    between atoms: N3_24  and  C17_25 
REMARK    9  A    between atoms: C17_25  and  C18_26 
REMARK   10  A    between atoms: C17_25  and  C19_28 
REMARK   11  A    between atoms: C18_26  and  S1_27 
REMARK   12  A    between atoms: C19_28  and  C20_29 
REMARK   13  A    between atoms: C20_29  and  O6_31 
ROOT
HETATM    1  C1  UNL     1      -0.737  55.105 -27.936  1.00  0.00     0.015 C 
HETATM    2  C2  UNL     1      -0.777  53.973 -27.538  1.00  0.00    -0.078 C 
HETATM    3  C3  UNL     1      -0.875  52.568 -27.107  1.00  0.00     0.128 C 
HETATM    4  C4  UNL     1       0.457  51.829 -27.256  1.00  0.00     0.052 C 
HETATM    5  C5  UNL     1       0.393  50.647 -26.280  1.00  0.00     0.010 C 
HETATM    6  C6  UNL     1      -0.804  50.895 -25.336  1.00  0.00     0.002 C 
HETATM    7  C7  UNL     1      -1.900  49.784 -25.334  1.00  0.00    -0.004 C 
HETATM    8  C8  UNL     1      -2.273  49.140 -26.687  1.00  0.00     0.010 C 
HETATM    9  C9  UNL     1      -3.313  48.028 -26.549  1.00  0.00     0.035 C 
HETATM   10  C10 UNL     1      -4.522  48.438 -25.742  1.00  0.00    -0.069 C 
HETATM   11  C11 UNL     1      -5.758  48.178 -26.199  1.00  0.00     0.030 C 
HETATM   12  C12 UNL     1      -6.963  48.430 -25.365  1.00  0.00     0.032 C 
HETATM   13  N1  UNL     1      -8.131  48.338 -25.937  1.00  0.00    -0.271 N 
ATOM     14  H1  UNL     1      -8.270  48.100 -26.919  1.00  0.00     0.194 HD
HETATM   15  C24 UNL     1      -6.740  48.729 -23.897  1.00  0.00     0.060 C 
HETATM   16  C25 UNL     1      -5.551  49.670 -23.763  1.00  0.00     0.020 C 
HETATM   17  C26 UNL     1      -4.241  49.118 -24.405  1.00  0.00    -0.016 C 
HETATM   18  C27 UNL     1      -3.680  48.052 -23.424  1.00  0.00     0.020 C 
HETATM   19  C28 UNL     1      -3.175  50.274 -24.592  1.00  0.00     0.002 C 
HETATM   20  C29 UNL     1      -3.692  51.527 -25.332  1.00  0.00     0.007 C 
HETATM   21  C30 UNL     1      -2.700  52.680 -25.246  1.00  0.00     0.014 C 
HETATM   22  C31 UNL     1      -1.235  52.369 -25.606  1.00  0.00     0.003 C 
HETATM   23  C32 UNL     1      -0.356  53.306 -24.714  1.00  0.00     0.020 C 
ENDROOT
BRANCH   3  24
HETATM   24  O1  UNL     1      -1.813  51.932 -27.966  1.00  0.00    -0.377 OA
HETATM   25  H2  UNL     1      -2.643  52.431 -27.922  1.00  0.00     0.211 HD
ENDBRANCH   3  24
BRANCH  13  26
HETATM   26  O2  UNL     1      -9.172  48.608 -25.038  1.00  0.00    -0.271 OA
BRANCH  26  27
HETATM   27  C13 UNL     1      -9.927  47.424 -24.805  1.00  0.00     0.303 C 
BRANCH  27  28
HETATM   28  C14 UNL     1     -11.281  47.490 -25.500  1.00  0.00     0.244 C 
HETATM   29  O3  UNL     1     -11.607  48.427 -26.227  1.00  0.00    -0.271 OA
HETATM   30  N2  UNL     1     -12.082  46.388 -25.278  1.00  0.00    -0.346 N 
HETATM   31  H16 UNL     1     -11.835  45.867 -24.436  1.00  0.00     0.163 HD
BRANCH  30  32
HETATM   32  C15 UNL     1     -13.494  46.423 -25.650  1.00  0.00     0.180 C 
BRANCH  32  33
HETATM   33  C16 UNL     1     -14.298  45.869 -24.451  1.00  0.00     0.241 C 
HETATM   34  O4  UNL     1     -13.762  45.495 -23.407  1.00  0.00    -0.271 OA
HETATM   35  N3  UNL     1     -15.663  45.820 -24.643  1.00  0.00    -0.353 N 
HETATM   36  H18 UNL     1     -16.051  46.138 -25.520  1.00  0.00     0.163 HD
BRANCH  35  37
HETATM   37  C17 UNL     1     -16.580  45.390 -23.579  1.00  0.00     0.103 C 
BRANCH  37  38
HETATM   38  C18 UNL     1     -17.445  44.198 -24.041  1.00  0.00     0.096 C 
BRANCH  38  39
HETATM   39  S1  UNL     1     -16.441  42.760 -24.539  1.00  0.00    -0.180 SA
HETATM   40  H22 UNL     1     -15.811  42.618 -23.356  1.00  0.00     0.101 HD
ENDBRANCH  38  39
ENDBRANCH  37  38
BRANCH  37  41
HETATM   41  C19 UNL     1     -17.473  46.564 -23.144  1.00  0.00     0.136 C 
BRANCH  41  42
HETATM   42  C20 UNL     1     -18.692  46.691 -24.015  1.00  0.00     0.141 C 
HETATM   43  O5  UNL     1     -18.846  47.438 -24.965  1.00  0.00    -0.650 OA
BRANCH  42  44
HETATM   44  O6  UNL     1     -19.675  45.851 -23.632  1.00  0.00    -0.776 OA
HETATM   45  H25 UNL     1     -20.375  45.968 -24.305  1.00  0.00     0.167 HD
ENDBRANCH  42  44
ENDBRANCH  41  42
ENDBRANCH  37  41
ENDBRANCH  35  37
ENDBRANCH  32  33
BRANCH  32  46
HETATM   46  C21 UNL     1     -13.750  45.665 -26.970  1.00  0.00     0.009 C 
HETATM   47  C22 UNL     1     -12.751  44.518 -27.163  1.00  0.00     0.012 C 
HETATM   48  C23 UNL     1     -13.760  46.564 -28.211  1.00  0.00     0.012 C 
ENDBRANCH  32  46
ENDBRANCH  30  32
ENDBRANCH  27  28
ENDBRANCH  26  27
ENDBRANCH  13  26
TORSDOF 13
ENDMDL
