MODEL 1
REMARK minimizedAffinity -9.31380558
REMARK CNNscore 0.592647076
REMARK CNNaffinity 6.8215065
REMARK  14 active torsions:
REMARK  status: ('A' for Active; 'I' for Inactive)
REMARK    1  A    between atoms: C12_13  and  O2_14 
REMARK    2  A    between atoms: C19_21  and  O3_22 
REMARK    3  A    between atoms: C19_21  and  C20_23 
REMARK    4  A    between atoms: C20_23  and  C21_25 
REMARK    5  A    between atoms: C21_25  and  O5_26 
REMARK    6  A    between atoms: O5_26  and  C22_27 
REMARK    7  A    between atoms: C22_27  and  C23_29 
REMARK    8  A    between atoms: C23_29  and  C24_30 
REMARK    9  A    between atoms: C24_30  and  C25_31 
REMARK       I    between atoms: C25_31  and  N1_33 
REMARK   10  A    between atoms: N1_33  and  C26_34 
REMARK   11  A    between atoms: C26_34  and  C27_35 
REMARK   12  A    between atoms: C27_35  and  C28_36 
REMARK   13  A    between atoms: C31_39  and  O8_40 
REMARK   14  A    between atoms: C32_41  and  O9_42 
ROOT
HETATM    1  C1  UNL     1      -2.189   6.297  14.883  1.00  0.00     0.025 C 
HETATM    2  C2  UNL     1      -1.832   7.799  14.856  1.00  0.00     0.004 A 
HETATM    3  C3  UNL     1      -1.398   8.171  16.274  1.00  0.00    -0.009 A 
HETATM    4  C4  UNL     1      -2.042   9.006  17.100  1.00  0.00     0.052 A 
HETATM    5  C5  UNL     1      -3.279   9.683  16.682  1.00  0.00     0.172 A 
HETATM    6  O1  UNL     1      -3.893  10.423  17.441  1.00  0.00    -0.289 OA
HETATM    7  C6  UNL     1      -3.735   9.449  15.300  1.00  0.00     0.058 A 
HETATM    8  C7  UNL     1      -3.091   8.615  14.461  1.00  0.00    -0.064 A 
HETATM    9  C8  UNL     1      -3.563   8.519  13.030  1.00  0.00     0.036 C 
HETATM   10  C9  UNL     1      -2.430   8.861  12.063  1.00  0.00     0.010 C 
HETATM   11  C10 UNL     1      -1.242   7.939  12.326  1.00  0.00    -0.002 C 
HETATM   12  C11 UNL     1      -0.711   8.110  13.791  1.00  0.00     0.035 C 
HETATM   13  C12 UNL     1       0.739   7.515  13.940  1.00  0.00     0.124 C 
HETATM   14  C13 UNL     1       1.227   6.540  12.846  1.00  0.00     0.045 C 
HETATM   15  C14 UNL     1       0.847   6.879  11.387  1.00  0.00     0.001 C 
HETATM   16  C15 UNL     1       0.166   5.617  10.773  1.00  0.00     0.019 C 
HETATM   17  C16 UNL     1      -0.059   8.138  11.388  1.00  0.00     0.002 C 
HETATM   18  C17 UNL     1      -0.242   8.450   9.917  1.00  0.00     0.009 C 
HETATM   19  C18 UNL     1       1.158   8.170   9.332  1.00  0.00     0.047 C 
HETATM   20  C19 UNL     1       1.964   7.380  10.420  1.00  0.00     0.128 C 
ENDROOT
BRANCH  20  21
HETATM   21  O3  UNL     1       2.808   8.299  11.120  1.00  0.00    -0.381 OA
HETATM   22  H25 UNL     1       3.310   8.810  10.458  1.00  0.00     0.211 HD
ENDBRANCH  20  21
BRANCH  20  23
HETATM   23  C20 UNL     1       2.855   6.275   9.797  1.00  0.00     0.185 C 
HETATM   24  O4  UNL     1       2.483   5.616   8.822  1.00  0.00    -0.292 OA
BRANCH  23  25
HETATM   25  C21 UNL     1       4.222   6.050  10.436  1.00  0.00     0.260 C 
BRANCH  25  26
HETATM   26  O5  UNL     1       5.026   7.225  10.304  1.00  0.00    -0.314 OA
BRANCH  26  27
HETATM   27  C22 UNL     1       6.220   7.155  10.949  1.00  0.00     0.259 C 
HETATM   28  O6  UNL     1       7.190   6.525  10.549  1.00  0.00    -0.265 OA
BRANCH  27  29
HETATM   29  C23 UNL     1       6.181   7.936  12.234  1.00  0.00     0.120 C 
BRANCH  29  30
HETATM   30  C24 UNL     1       6.626   7.076  13.408  1.00  0.00     0.112 C 
BRANCH  30  31
HETATM   31  C25 UNL     1       7.125   7.913  14.564  1.00  0.00     0.218 C 
HETATM   32  O7  UNL     1       6.555   8.917  14.974  1.00  0.00    -0.274 OA
HETATM   33  N1  UNL     1       8.287   7.421  15.117  1.00  0.00    -0.361 N 
HETATM   34  H32 UNL     1       8.697   6.572  14.747  1.00  0.00     0.162 HD
BRANCH  33  35
HETATM   35  C26 UNL     1       8.932   8.066  16.245  1.00  0.00     0.127 C 
BRANCH  35  36
HETATM   36  C27 UNL     1       8.877   9.592  16.145  1.00  0.00     0.058 C 
BRANCH  36  37
HETATM   37  C28 UNL     1       9.172  10.246  17.472  1.00  0.00    -0.054 A 
HETATM   38  C29 UNL     1       8.154  10.912  18.176  1.00  0.00     0.010 A 
HETATM   39  C30 UNL     1       8.415  11.497  19.417  1.00  0.00     0.040 A 
HETATM   40  C31 UNL     1       9.693  11.411  19.950  1.00  0.00     0.098 A 
HETATM   41  C32 UNL     1      10.709  10.754  19.265  1.00  0.00     0.099 A 
HETATM   42  C33 UNL     1      10.459  10.167  18.028  1.00  0.00     0.046 A 
BRANCH  40  43
HETATM   43  O8  UNL     1       9.948  11.982  21.165  1.00  0.00    -0.358 OA
HETATM   44  H39 UNL     1      10.897  11.805  21.320  1.00  0.00     0.217 HD
ENDBRANCH  40  43
BRANCH  41  45
HETATM   45  O9  UNL     1      11.944  10.706  19.849  1.00  0.00    -0.358 OA
HETATM   46  H40 UNL     1      12.541  10.224  19.252  1.00  0.00     0.217 HD
ENDBRANCH  41  45
ENDBRANCH  36  37
ENDBRANCH  35  36
ENDBRANCH  33  35
ENDBRANCH  30  31
ENDBRANCH  29  30
ENDBRANCH  27  29
ENDBRANCH  26  27
ENDBRANCH  25  26
ENDBRANCH  23  25
ENDBRANCH  20  23
BRANCH  13  47
HETATM   47  O2  UNL     1       0.966   6.883  15.193  1.00  0.00    -0.395 OA
HETATM   48  H14 UNL     1       1.921   6.708  15.268  1.00  0.00     0.210 HD
ENDBRANCH  13  47
TORSDOF 14
ENDMDL
