MODEL 1
REMARK minimizedAffinity -8.34002209
REMARK CNNscore 0.499846488
REMARK CNNaffinity 6.95446968
REMARK  6 active torsions:
REMARK  status: ('A' for Active; 'I' for Inactive)
REMARK    1  A    between atoms: O1_2  and  C2_3 
REMARK    2  A    between atoms: C7_9  and  C8_10 
REMARK    3  A    between atoms: C8_10  and  C9_11 
REMARK    4  A    between atoms: C9_11  and  N2_12 
REMARK       I    between atoms: N2_12  and  C10_13 
REMARK    5  A    between atoms: C10_13  and  C11_15 
REMARK    6  A    between atoms: C16_21  and  C17_22 
ROOT
HETATM    1  C11 UNL     1     -10.534   8.534  15.420  1.00  0.00     0.034 A 
HETATM    2  C12 UNL     1      -9.328   9.201  15.675  1.00  0.00     0.020 A 
HETATM    3  C13 UNL     1      -8.115   8.644  15.263  1.00  0.00     0.040 A 
HETATM    4  C14 UNL     1      -8.108   7.415  14.607  1.00  0.00     0.103 A 
HETATM    5  O3  UNL     1      -6.893   6.914  14.225  1.00  0.00    -0.303 OA
HETATM    6  C15 UNL     1      -6.847   5.669  13.588  1.00  0.00     0.144 A 
HETATM    7  C16 UNL     1      -5.630   5.205  13.252  1.00  0.00     0.054 C 
HETATM    8  C23 UNL     1      -8.119   4.912  13.301  1.00  0.00     0.280 A 
HETATM    9  O4  UNL     1      -8.175   3.829  12.727  1.00  0.00    -0.265 OA
HETATM   10  N3  UNL     1      -9.275   5.511  13.723  1.00  0.00    -0.319 N 
HETATM   11  C24 UNL     1      -9.303   6.743  14.369  1.00  0.00     0.070 A 
HETATM   12  C25 UNL     1     -10.521   7.291  14.773  1.00  0.00     0.049 A 
HETATM   13  H20 UNL     1     -10.124   4.994  13.538  1.00  0.00     0.169 HD
ENDROOT
BRANCH   1  14
HETATM   14  C10 UNL     1     -11.800   9.165  15.880  1.00  0.00     0.251 C 
HETATM   15  N2  UNL     1     -12.020   9.174  17.242  1.00  0.00    -0.357 N 
HETATM   16  H12 UNL     1     -11.444   8.604  17.844  1.00  0.00     0.162 HD
HETATM   17  O2  UNL     1     -12.596   9.610  15.062  1.00  0.00    -0.268 OA
BRANCH  15  18
HETATM   18  C9  UNL     1     -13.258   9.696  17.797  1.00  0.00     0.127 C 
BRANCH  18  19
HETATM   19  C8  UNL     1     -13.016  10.680  18.945  1.00  0.00     0.060 C 
BRANCH  19  20
HETATM   20  C7  UNL     1     -12.485  10.004  20.169  1.00  0.00    -0.029 A 
HETATM   21  C6  UNL     1     -11.237  10.184  20.733  1.00  0.00     0.096 A 
HETATM   22  N1  UNL     1     -11.145   9.381  21.839  1.00  0.00    -0.365 N 
HETATM   23  C5  UNL     1     -12.313   8.679  22.015  1.00  0.00     0.043 A 
HETATM   24  H6  UNL     1     -10.338   9.309  22.442  1.00  0.00     0.165 HD
HETATM   25  C4  UNL     1     -12.671   7.753  23.001  1.00  0.00     0.033 A 
HETATM   26  C26 UNL     1     -13.173   9.046  20.982  1.00  0.00     0.001 A 
HETATM   27  C3  UNL     1     -13.950   7.183  22.929  1.00  0.00     0.039 A 
HETATM   28  C2  UNL     1     -14.837   7.525  21.909  1.00  0.00     0.069 A 
HETATM   29  C27 UNL     1     -14.453   8.456  20.933  1.00  0.00     0.051 A 
BRANCH  28  30
HETATM   30  O1  UNL     1     -16.103   7.029  21.748  1.00  0.00    -0.356 OA
HETATM   31  C1  UNL     1     -17.027   7.263  22.803  1.00  0.00     0.210 C 
ENDBRANCH  28  30
ENDBRANCH  19  20
ENDBRANCH  18  19
ENDBRANCH  15  18
ENDBRANCH   1  14
BRANCH   7  32
HETATM   32  C17 UNL     1      -5.300   3.941  12.593  1.00  0.00    -0.032 A 
HETATM   33  C18 UNL     1      -6.324   3.075  12.191  1.00  0.00     0.011 A 
HETATM   34  C19 UNL     1      -6.018   1.872  11.552  1.00  0.00     0.003 A 
HETATM   35  C20 UNL     1      -4.687   1.530  11.310  1.00  0.00     0.024 A 
HETATM   36  C21 UNL     1      -3.668   2.393  11.710  1.00  0.00     0.034 A 
HETATM   37 CL1  UNL     1      -2.026   1.972  11.407  1.00  0.00    -0.084 Cl
HETATM   38  C22 UNL     1      -3.966   3.597  12.347  1.00  0.00     0.035 A 
ENDBRANCH   7  32
TORSDOF 6
ENDMDL
