MODEL 1
REMARK minimizedAffinity -6.73232365
REMARK CNNscore 0.814281583
REMARK CNNaffinity 6.95304728
REMARK  6 active torsions:
REMARK  status: ('A' for Active; 'I' for Inactive)
REMARK    1  A    between atoms: C2_2  and  O2_4 
REMARK    2  A    between atoms: O2_4  and  C3_5 
REMARK    3  A    between atoms: C19_23  and  C20_24 
REMARK    4  A    between atoms: C26_32  and  O7_33 
REMARK    5  A    between atoms: C27_34  and  C28_35 
REMARK    6  A    between atoms: C31_40  and  O10_41 
ROOT
HETATM    1  C3  UNL     1     -14.021  10.838  -2.452  1.00  0.00     0.201 C 
HETATM    2  C4  UNL     1     -14.798  10.360  -3.689  1.00  0.00     0.070 C 
HETATM    3  C5  UNL     1     -14.890  11.432  -4.781  1.00  0.00     0.123 C 
HETATM    4  C6  UNL     1     -16.063  11.165  -5.717  1.00  0.00     0.040 C 
HETATM    5  O3  UNL     1     -15.077  12.714  -4.192  1.00  0.00    -0.351 OA
HETATM    6  C7  UNL     1     -13.934  13.180  -3.459  1.00  0.00     0.325 C 
HETATM    7  O4  UNL     1     -14.405  14.202  -2.575  1.00  0.00    -0.347 OA
HETATM    8  C8  UNL     1     -13.680  14.345  -1.354  1.00  0.00     0.158 C 
HETATM    9  C9  UNL     1     -13.665  15.829  -0.985  1.00  0.00     0.069 C 
HETATM   10  C10 UNL     1     -12.860  16.098   0.267  1.00  0.00    -0.065 C 
HETATM   11  C11 UNL     1     -13.393  16.791   1.290  1.00  0.00    -0.022 C 
HETATM   12  C12 UNL     1     -12.667  17.135   2.556  1.00  0.00     0.035 C 
HETATM   13  C13 UNL     1     -11.140  16.948   2.449  1.00  0.00     0.030 C 
HETATM   14  C14 UNL     1     -10.827  15.601   1.750  1.00  0.00     0.012 C 
HETATM   15  C15 UNL     1      -9.333  15.227   1.819  1.00  0.00     0.007 C 
HETATM   16  C16 UNL     1      -8.434  16.361   2.293  1.00  0.00     0.013 C 
HETATM   17  C17 UNL     1      -8.843  17.062   3.627  1.00  0.00    -0.005 C 
HETATM   18  C18 UNL     1      -8.199  18.469   3.555  1.00  0.00     0.019 C 
HETATM   19  C19 UNL     1      -8.332  16.246   4.865  1.00  0.00     0.028 C 
HETATM   20  C24 UNL     1      -9.476  15.281   5.190  1.00  0.00     0.013 C 
HETATM   21  C25 UNL     1     -10.761  16.018   4.850  1.00  0.00     0.040 C 
HETATM   22  C26 UNL     1     -10.404  17.104   3.806  1.00  0.00     0.070 C 
HETATM   23  C27 UNL     1     -11.441  15.530   0.304  1.00  0.00     0.043 C 
HETATM   24  C29 UNL     1     -11.462  14.050  -0.162  1.00  0.00     0.056 C 
HETATM   25  C30 UNL     1     -12.255  13.796  -1.449  1.00  0.00     0.156 C 
HETATM   26  O9  UNL     1     -12.329  12.379  -1.637  1.00  0.00    -0.341 OA
HETATM   27  C31 UNL     1     -13.086  12.018  -2.797  1.00  0.00     0.241 C 
ENDROOT
BRANCH  19  28
HETATM   28  C20 UNL     1      -7.908  17.039   6.078  1.00  0.00    -0.045 A 
HETATM   29  C21 UNL     1      -8.636  17.488   7.102  1.00  0.00     0.087 A 
HETATM   30  C22 UNL     1      -7.724  18.189   8.004  1.00  0.00     0.283 A 
HETATM   31  O5  UNL     1      -8.056  18.728   9.044  1.00  0.00    -0.260 OA
HETATM   32  O6  UNL     1      -6.462  18.129   7.501  1.00  0.00    -0.314 OA
HETATM   33  C23 UNL     1      -6.486  17.418   6.265  1.00  0.00     0.213 A 
ENDBRANCH  19  28
BRANCH  22  34
HETATM   34  O7  UNL     1     -10.770  18.372   4.368  1.00  0.00    -0.389 OA
HETATM   35  H35 UNL     1     -11.680  18.324   4.704  1.00  0.00     0.210 HD
ENDBRANCH  22  34
BRANCH  23  36
HETATM   36  C28 UNL     1     -10.611  16.398  -0.655  1.00  0.00     0.245 C 
HETATM   37  O8  UNL     1      -9.427  16.678  -0.485  1.00  0.00    -0.306 OA
ENDBRANCH  23  36
BRANCH  27  38
HETATM   38  O10 UNL     1     -12.118  11.527  -3.740  1.00  0.00    -0.360 OA
HETATM   39  H40 UNL     1     -11.455  12.232  -3.822  1.00  0.00     0.213 HD
ENDBRANCH  27  38
BRANCH   1  40
HETATM   40  O2  UNL     1     -14.945  11.253  -1.416  1.00  0.00    -0.310 OA
BRANCH  40  41
HETATM   41  C2  UNL     1     -14.762  10.693  -0.192  1.00  0.00     0.255 C 
HETATM   42  C1  UNL     1     -13.821   9.532  -0.297  1.00  0.00     0.126 C 
HETATM   43  O1  UNL     1     -15.265  11.078   0.852  1.00  0.00    -0.266 OA
ENDBRANCH  40  41
ENDBRANCH   1  40
TORSDOF 6
ENDMDL
