MODEL 1
REMARK minimizedAffinity -9.448699
REMARK  5 active torsions:
REMARK  status: ('A' for Active; 'I' for Inactive)
REMARK       I    between atoms: C1_2  and  N1_3 
REMARK       I    between atoms: C1_2  and  N2_11 
REMARK    1  A    between atoms: N1_3  and  C2_4 
REMARK    2  A    between atoms: C2_4  and  C3_5 
REMARK    3  A    between atoms: N2_11  and  C9_12 
REMARK    4  A    between atoms: C9_12  and  C10_13 
REMARK    5  A    between atoms: C13_17  and  C14_18 
ROOT
HETATM    1  C10 UNL     1      -2.464   3.088  11.988  1.00  0.00     0.158 C 
HETATM    2  C11 UNL     1      -2.948   4.523  11.782  1.00  0.00     0.163 C 
HETATM    3  N3  UNL     1      -4.216   4.648  12.463  1.00  0.00    -0.340 N 
HETATM    4  C12 UNL     1      -4.709   5.677  13.199  1.00  0.00     0.122 A 
HETATM    5  C13 UNL     1      -5.932   5.222  13.654  1.00  0.00     0.059 A 
HETATM    6  N4  UNL     1      -6.157   3.931  13.210  1.00  0.00    -0.342 N 
ATOM      7  H4  UNL     1      -6.973   3.349  13.397  1.00  0.00     0.167 HD
HETATM    8  C23 UNL     1      -5.098   3.607  12.495  1.00  0.00     0.108 A 
HETATM    9  C24 UNL     1      -4.815   2.345  11.755  1.00  0.00     0.245 C 
HETATM   10  O4  UNL     1      -3.407   2.095  11.552  1.00  0.00    -0.375 OA
ENDROOT
BRANCH   1  11
HETATM   11  C9  UNL     1      -1.100   2.815  11.316  1.00  0.00     0.157 C 
BRANCH  11  12
HETATM   12  N2  UNL     1       0.036   3.604  11.788  1.00  0.00    -0.341 N 
HETATM   13  C1  UNL     1       0.241   4.898  11.375  1.00  0.00     0.316 C 
HETATM   14  O1  UNL     1      -0.546   5.547  10.705  1.00  0.00    -0.247 OA
HETATM   15  N1  UNL     1       1.411   5.408  11.875  1.00  0.00    -0.339 N 
HETATM   16  H1  UNL     1       2.104   4.772  12.234  1.00  0.00     0.164 HD
HETATM   17  H9  UNL     1       0.890   3.084  11.924  1.00  0.00     0.164 HD
BRANCH  15  18
HETATM   18  C2  UNL     1       1.865   6.734  11.518  1.00  0.00     0.162 C 
BRANCH  18  19
HETATM   19  C3  UNL     1       1.949   6.889  10.021  1.00  0.00    -0.040 A 
HETATM   20  C4  UNL     1       1.275   7.938   9.380  1.00  0.00     0.009 A 
HETATM   21  C5  UNL     1       1.339   8.081   7.990  1.00  0.00     0.001 A 
HETATM   22  C6  UNL     1       2.070   7.171   7.229  1.00  0.00     0.000 A 
HETATM   23  C7  UNL     1       2.735   6.116   7.855  1.00  0.00     0.001 A 
HETATM   24  C8  UNL     1       2.674   5.974   9.245  1.00  0.00     0.009 A 
ENDBRANCH  18  19
ENDBRANCH  15  18
ENDBRANCH  11  12
ENDBRANCH   1  11
BRANCH   5  25
HETATM   25  C14 UNL     1      -6.891   5.959  14.467  1.00  0.00    -0.005 A 
HETATM   26  C15 UNL     1      -6.660   6.101  15.842  1.00  0.00     0.017 A 
HETATM   27  C16 UNL     1      -7.565   6.790  16.655  1.00  0.00     0.040 A 
HETATM   28  C17 UNL     1      -8.713   7.357  16.104  1.00  0.00     0.102 A 
HETATM   29  O2  UNL     1      -9.507   8.037  16.994  1.00  0.00    -0.348 OA
HETATM   30  C21 UNL     1      -8.979   7.191  14.737  1.00  0.00     0.102 A 
HETATM   31  C18 UNL     1     -10.119   9.197  16.430  1.00  0.00     0.178 C 
HETATM   32  C19 UNL     1     -11.419   8.849  15.720  1.00  0.00     0.053 C 
HETATM   33  C20 UNL     1     -11.282   7.596  14.876  1.00  0.00     0.178 C 
HETATM   34  O3  UNL     1     -10.098   7.639  14.080  1.00  0.00    -0.348 OA
HETATM   35  C22 UNL     1      -8.055   6.520  13.925  1.00  0.00     0.053 A 
ENDBRANCH   5  25
TORSDOF 5
ENDMDL
