MODEL 1
REMARK minimizedAffinity -8.68863297
REMARK CNNscore 0.741144776
REMARK CNNaffinity 6.94117355
REMARK  12 active torsions:
REMARK  status: ('A' for Active; 'I' for Inactive)
REMARK    1  A    between atoms: O1_2  and  C2_3 
REMARK    2  A    between atoms: C2_3  and  C3_4 
REMARK    3  A    between atoms: C3_4  and  C4_5 
REMARK    4  A    between atoms: C4_5  and  O2_6 
REMARK    5  A    between atoms: O2_6  and  C5_7 
REMARK    6  A    between atoms: C20_23  and  C21_24 
REMARK    7  A    between atoms: C21_24  and  O4_26 
REMARK    8  A    between atoms: C21_24  and  C23_27 
REMARK    9  A    between atoms: C23_27  and  O5_28 
REMARK   10  A    between atoms: C23_27  and  C24_29 
REMARK   11  A    between atoms: C29_36  and  O7_37 
REMARK   12  A    between atoms: C34_42  and  O8_43 
ROOT
HETATM    1  C5  UNL     1      -0.827  51.827 -20.238  1.00  0.00     0.122 C 
HETATM    2  C6  UNL     1      -0.245  50.757 -21.175  1.00  0.00     0.033 C 
HETATM    3  C7  UNL     1      -1.323  50.116 -22.042  1.00  0.00     0.013 C 
HETATM    4  C8  UNL     1      -2.413  49.375 -21.200  1.00  0.00    -0.026 C 
HETATM    5  C9  UNL     1      -2.006  47.883 -21.069  1.00  0.00     0.016 C 
HETATM    6  C10 UNL     1      -2.450  49.954 -19.754  1.00  0.00     0.071 C 
HETATM    7  C11 UNL     1      -2.240  51.471 -19.744  1.00  0.00     0.045 C 
HETATM    8  C12 UNL     1      -3.693  49.575 -18.977  1.00  0.00     0.154 C 
HETATM    9  O3  UNL     1      -3.720  49.588 -17.747  1.00  0.00    -0.293 OA
HETATM   10  C13 UNL     1      -4.940  49.250 -19.700  1.00  0.00     0.057 C 
HETATM   11  C14 UNL     1      -5.015  49.282 -21.037  1.00  0.00    -0.037 C 
HETATM   12  C15 UNL     1      -3.804  49.548 -21.931  1.00  0.00     0.026 C 
HETATM   13  C16 UNL     1      -3.852  48.776 -23.282  1.00  0.00     0.011 C 
HETATM   14  C17 UNL     1      -5.232  48.700 -23.955  1.00  0.00     0.014 C 
HETATM   15  C18 UNL     1      -6.317  48.214 -22.970  1.00  0.00    -0.002 C 
HETATM   16  C19 UNL     1      -6.000  46.768 -22.522  1.00  0.00     0.019 C 
HETATM   17  C20 UNL     1      -7.795  48.366 -23.480  1.00  0.00     0.034 C 
HETATM   18  C32 UNL     1      -8.619  48.471 -22.167  1.00  0.00     0.012 C 
HETATM   19  C33 UNL     1      -7.629  48.827 -21.040  1.00  0.00     0.044 C 
HETATM   20  C34 UNL     1      -6.335  49.206 -21.769  1.00  0.00     0.089 C 
ENDROOT
BRANCH  17  21
HETATM   21  C21 UNL     1      -8.391  47.421 -24.587  1.00  0.00     0.087 C 
HETATM   22  C22 UNL     1      -9.852  47.017 -24.351  1.00  0.00     0.049 C 
BRANCH  21  23
HETATM   23  O4  UNL     1      -7.622  46.206 -24.592  1.00  0.00    -0.387 OA
HETATM   24  H34 UNL     1      -6.688  46.443 -24.722  1.00  0.00     0.210 HD
ENDBRANCH  21  23
BRANCH  21  25
HETATM   25  C23 UNL     1      -8.222  48.099 -26.006  1.00  0.00     0.181 C 
BRANCH  25  26
HETATM   26  O5  UNL     1      -9.188  49.140 -26.179  1.00  0.00    -0.390 OA
HETATM   27  H36 UNL     1      -8.793  49.825 -26.741  1.00  0.00     0.210 HD
ENDBRANCH  25  26
BRANCH  25  28
HETATM   28  C24 UNL     1      -8.234  47.110 -27.214  1.00  0.00     0.158 C 
HETATM   29  O6  UNL     1      -9.490  47.168 -27.926  1.00  0.00    -0.373 OA
HETATM   30  C25 UNL     1      -9.318  47.903 -29.157  1.00  0.00     0.185 C 
HETATM   31  C26 UNL     1      -7.850  48.294 -29.262  1.00  0.00     0.027 C 
HETATM   32  C29 UNL     1      -9.787  47.025 -30.339  1.00  0.00     0.383 C 
HETATM   33  C27 UNL     1      -7.318  48.262 -30.696  1.00  0.00     0.038 C 
HETATM   34  C30 UNL     1      -7.174  47.327 -28.303  1.00  0.00     0.020 C 
HETATM   35  C28 UNL     1      -8.440  48.557 -31.691  1.00  0.00     0.273 C 
HETATM   36  N1  UNL     1      -9.462  47.518 -31.664  1.00  0.00     0.114 N 
HETATM   37  H44 UNL     1     -10.332  47.857 -32.075  1.00  0.00     0.319 HD
HETATM   38  C31 UNL     1      -5.793  47.764 -27.845  1.00  0.00     0.013 C 
BRANCH  32  39
HETATM   39  O7  UNL     1     -11.199  46.887 -30.277  1.00  0.00    -0.366 OA
HETATM   40  H46 UNL     1     -11.383  46.625 -29.356  1.00  0.00     0.212 HD
ENDBRANCH  32  39
ENDBRANCH  25  28
ENDBRANCH  21  25
ENDBRANCH  17  21
BRANCH  20  41
HETATM   41  O8  UNL     1      -6.541  50.548 -22.259  1.00  0.00    -0.384 OA
HETATM   42  H55 UNL     1      -6.615  51.128 -21.480  1.00  0.00     0.211 HD
ENDBRANCH  20  41
BRANCH   1  43
HETATM   43  O2  UNL     1       0.075  51.928 -19.132  1.00  0.00    -0.386 OA
BRANCH  43  44
HETATM   44  C4  UNL     1       1.131  52.862 -19.339  1.00  0.00     0.170 C 
BRANCH  44  45
HETATM   45  C3  UNL     1       0.632  53.996 -20.226  1.00  0.00     0.052 C 
BRANCH  45  46
HETATM   46  C2  UNL     1       1.560  54.244 -21.413  1.00  0.00     0.169 C 
BRANCH  46  47
HETATM   47  O1  UNL     1       1.063  53.608 -22.594  1.00  0.00    -0.396 OA
HETATM   48  C1  UNL     1       1.061  54.460 -23.731  1.00  0.00     0.201 C 
ENDBRANCH  46  47
ENDBRANCH  45  46
ENDBRANCH  44  45
ENDBRANCH  43  44
ENDBRANCH   1  43
TORSDOF 12
ENDMDL
