MODEL 1
REMARK minimizedAffinity -10.1641798
REMARK CNNscore 0.57850951
REMARK CNNaffinity 7.55062723
REMARK  10 active torsions:
REMARK  status: ('A' for Active; 'I' for Inactive)
REMARK    1  A    between atoms: O1_2  and  C2_3 
REMARK    2  A    between atoms: C4_5  and  O2_6 
REMARK    3  A    between atoms: O2_6  and  C5_7 
REMARK    4  A    between atoms: C8_10  and  C9_11 
REMARK    5  A    between atoms: N1_12  and  C10_14 
REMARK    6  A    between atoms: C10_14  and  C11_15 
REMARK    7  A    between atoms: C21_27  and  C22_28 
REMARK    8  A    between atoms: C28_36  and  O5_37 
REMARK    9  A    between atoms: C32_41  and  O6_42 
REMARK   10  A    between atoms: C36_47  and  O8_48 
ROOT
HETATM    1  C5  UNL     1      -5.840   7.814  15.304  1.00  0.00     0.127 C 
HETATM    2  C6  UNL     1      -5.697   8.536  13.966  1.00  0.00     0.033 C 
HETATM    3  C7  UNL     1      -4.377   8.233  13.249  1.00  0.00     0.021 C 
HETATM    4  C8  UNL     1      -3.094   8.442  14.117  1.00  0.00     0.026 C 
HETATM    5  C16 UNL     1      -1.859   7.908  13.265  1.00  0.00     0.009 C 
HETATM    6  C17 UNL     1      -1.116   9.025  12.499  1.00  0.00     0.007 C 
HETATM    7  C18 UNL     1       0.036   8.500  11.648  1.00  0.00     0.013 C 
HETATM    8  C19 UNL     1       1.068   7.685  12.466  1.00  0.00    -0.005 C 
HETATM    9  C20 UNL     1       1.869   8.628  13.390  1.00  0.00     0.019 C 
HETATM   10  C21 UNL     1       2.016   6.862  11.542  1.00  0.00     0.028 C 
HETATM   11  C26 UNL     1       1.139   5.677  11.090  1.00  0.00     0.013 C 
HETATM   12  C27 UNL     1       0.066   5.486  12.174  1.00  0.00     0.040 C 
HETATM   13  C28 UNL     1       0.355   6.549  13.256  1.00  0.00     0.070 C 
HETATM   14  C29 UNL     1      -0.874   7.035  14.077  1.00  0.00     0.026 C 
HETATM   15  C30 UNL     1      -1.607   5.865  14.772  1.00  0.00     0.011 C 
HETATM   16  C31 UNL     1      -3.021   6.190  15.275  1.00  0.00     0.039 C 
HETATM   17  C32 UNL     1      -3.253   7.696  15.481  1.00  0.00     0.073 C 
HETATM   18  C33 UNL     1      -4.597   8.018  16.169  1.00  0.00     0.071 C 
ENDROOT
BRANCH   1  19
HETATM   19  O2  UNL     1      -6.050   6.420  15.063  1.00  0.00    -0.356 OA
BRANCH  19  20
HETATM   20  C4  UNL     1      -6.993   6.165  14.014  1.00  0.00     0.263 C 
HETATM   21  C3  UNL     1      -7.046   4.658  13.827  1.00  0.00     0.095 C 
HETATM   22  C2  UNL     1      -7.945   4.288  12.646  1.00  0.00     0.156 C 
HETATM   23  C36 UNL     1      -9.111   5.285  12.485  1.00  0.00     0.175 C 
HETATM   24  C34 UNL     1      -9.398   5.990  13.822  1.00  0.00     0.151 C 
HETATM   25  O7  UNL     1      -8.267   6.711  14.336  1.00  0.00    -0.354 OA
HETATM   26  C35 UNL     1     -10.547   6.992  13.717  1.00  0.00     0.042 C 
BRANCH  22  27
HETATM   27  O1  UNL     1      -8.505   2.980  12.835  1.00  0.00    -0.388 OA
HETATM   28  C1  UNL     1      -7.558   1.932  12.664  1.00  0.00     0.202 C 
ENDBRANCH  22  27
BRANCH  23  29
HETATM   29  O8  UNL     1      -8.772   6.257  11.486  1.00  0.00    -0.390 OA
HETATM   30  H50 UNL     1      -8.834   5.813  10.621  1.00  0.00     0.210 HD
ENDBRANCH  23  29
ENDBRANCH  19  20
ENDBRANCH   1  19
BRANCH  17  31
HETATM   31  O6  UNL     1      -2.242   8.140  16.410  1.00  0.00    -0.389 OA
HETATM   32  H42 UNL     1      -2.362   7.639  17.237  1.00  0.00     0.210 HD
ENDBRANCH  17  31
BRANCH   4  33
HETATM   33  C9  UNL     1      -2.888   9.931  14.437  1.00  0.00     0.069 C 
HETATM   34  N1  UNL     1      -3.732  10.599  15.153  1.00  0.00    -0.397 N 
ATOM     35  H1  UNL     1      -4.560  10.179  15.576  1.00  0.00     0.159 HD
BRANCH  34  36
HETATM   36  C10 UNL     1      -3.388  12.014  15.299  1.00  0.00     0.158 C 
BRANCH  36  37
HETATM   37  C11 UNL     1      -3.572  12.455  16.722  1.00  0.00    -0.025 A 
HETATM   38  C12 UNL     1      -3.718  11.532  17.760  1.00  0.00     0.011 A 
HETATM   39  C13 UNL     1      -3.867  11.987  19.067  1.00  0.00     0.018 A 
HETATM   40  C14 UNL     1      -3.856  13.353  19.292  1.00  0.00     0.087 A 
HETATM   41  N2  UNL     1      -3.706  14.275  18.318  1.00  0.00    -0.375 N 
HETATM   42  C15 UNL     1      -3.556  13.806  17.059  1.00  0.00     0.096 A 
ATOM     43  H2  UNL     1      -3.706  15.274  18.522  1.00  0.00     0.164 HD
ENDBRANCH  36  37
ENDBRANCH  34  36
ENDBRANCH   4  33
BRANCH  13  44
HETATM   44  O5  UNL     1       1.302   5.975  14.173  1.00  0.00    -0.389 OA
HETATM   45  H36 UNL     1       0.921   5.154  14.532  1.00  0.00     0.210 HD
ENDBRANCH  13  44
BRANCH  10  46
HETATM   46  C22 UNL     1       2.720   7.615  10.446  1.00  0.00    -0.045 A 
HETATM   47  C23 UNL     1       2.284   7.956   9.233  1.00  0.00     0.087 A 
HETATM   48  C24 UNL     1       3.384   8.640   8.552  1.00  0.00     0.283 A 
HETATM   49  O3  UNL     1       3.327   9.100   7.425  1.00  0.00    -0.260 OA
HETATM   50  O4  UNL     1       4.465   8.672   9.373  1.00  0.00    -0.314 OA
HETATM   51  C25 UNL     1       4.133   8.037  10.607  1.00  0.00     0.213 A 
ENDBRANCH  10  46
TORSDOF 10
ENDMDL
