MODEL 1
REMARK minimizedAffinity -9.14287853
REMARK CNNscore 0.428720355
REMARK CNNaffinity 6.52421427
REMARK  18 active torsions:
REMARK  status: ('A' for Active; 'I' for Inactive)
REMARK    1  A    between atoms: C2_2  and  C4_4 
REMARK    2  A    between atoms: C4_4  and  N1_5 
REMARK    3  A    between atoms: C4_4  and  C30_38 
REMARK       I    between atoms: N1_5  and  C5_6 
REMARK    4  A    between atoms: C5_6  and  C6_8 
REMARK    5  A    between atoms: C6_8  and  C7_9 
REMARK    6  A    between atoms: C7_9  and  C8_10 
REMARK    7  A    between atoms: C8_10  and  O3_12 
REMARK    8  A    between atoms: O3_12  and  C9_13 
REMARK    9  A    between atoms: C9_13  and  C10_14 
REMARK   10  A    between atoms: C10_14  and  C11_16 
REMARK   11  A    between atoms: C11_16  and  O5_17 
REMARK   12  A    between atoms: C26_33  and  O7_34 
REMARK       I    between atoms: C30_38  and  N2_40 
REMARK   13  A    between atoms: N2_40  and  C31_41 
REMARK   14  A    between atoms: C31_41  and  C32_42 
REMARK   15  A    between atoms: C32_42  and  C33_43 
REMARK   16  A    between atoms: C32_42  and  C35_47 
REMARK   17  A    between atoms: C33_43  and  C34_44 
REMARK   18  A    between atoms: C34_44  and  O10_46 
ROOT
HETATM    1  C8  UNL     1      -9.032  48.028 -24.789  1.00  0.00     0.259 C 
HETATM    2  O2  UNL     1      -9.196  49.186 -25.146  1.00  0.00    -0.265 OA
ENDROOT
BRANCH   1   3
HETATM    3  C7  UNL     1     -10.141  47.015 -24.651  1.00  0.00     0.120 C 
BRANCH   3   4
HETATM    4  C6  UNL     1     -10.105  45.943 -25.734  1.00  0.00     0.112 C 
BRANCH   4   5
HETATM    5  C5  UNL     1     -11.475  45.325 -25.912  1.00  0.00     0.218 C 
HETATM    6  N1  UNL     1     -12.465  46.221 -26.236  1.00  0.00    -0.347 N 
HETATM    7  H9  UNL     1     -12.260  47.211 -26.281  1.00  0.00     0.163 HD
HETATM    8  O1  UNL     1     -11.668  44.121 -25.785  1.00  0.00    -0.274 OA
BRANCH   6   9
HETATM    9  C4  UNL     1     -13.872  45.810 -26.394  1.00  0.00     0.179 C 
BRANCH   9  10
HETATM   10  C2  UNL     1     -14.397  46.065 -27.829  1.00  0.00     0.009 C 
HETATM   11  C1  UNL     1     -15.507  45.074 -28.208  1.00  0.00     0.012 C 
HETATM   12  C3  UNL     1     -13.292  45.960 -28.887  1.00  0.00     0.012 C 
ENDBRANCH   9  10
BRANCH   9  13
HETATM   13  C30 UNL     1     -14.718  46.545 -25.314  1.00  0.00     0.240 C 
HETATM   14  O8  UNL     1     -14.467  47.670 -24.895  1.00  0.00    -0.271 OA
HETATM   15  N2  UNL     1     -15.862  45.864 -24.939  1.00  0.00    -0.359 N 
HETATM   16  H43 UNL     1     -16.109  45.057 -25.503  1.00  0.00     0.162 HD
BRANCH  15  17
HETATM   17  C31 UNL     1     -16.931  46.498 -24.187  1.00  0.00     0.132 C 
BRANCH  17  18
HETATM   18  C32 UNL     1     -17.592  45.507 -23.204  1.00  0.00     0.046 C 
BRANCH  18  19
HETATM   19  C33 UNL     1     -18.979  45.089 -23.711  1.00  0.00     0.120 C 
BRANCH  19  20
HETATM   20  C34 UNL     1     -19.329  45.775 -25.003  1.00  0.00     0.140 C 
HETATM   21  O9  UNL     1     -19.977  46.797 -25.141  1.00  0.00    -0.650 OA
BRANCH  20  22
HETATM   22  O10 UNL     1     -18.888  45.092 -26.077  1.00  0.00    -0.776 OA
HETATM   23  H49 UNL     1     -19.190  45.633 -26.837  1.00  0.00     0.167 HD
ENDBRANCH  20  22
ENDBRANCH  19  20
ENDBRANCH  18  19
BRANCH  18  24
HETATM   24  C35 UNL     1     -17.629  46.115 -21.803  1.00  0.00    -0.052 A 
HETATM   25  C36 UNL     1     -18.833  46.481 -21.182  1.00  0.00     0.007 A 
HETATM   26  C37 UNL     1     -18.830  47.080 -19.921  1.00  0.00     0.001 A 
HETATM   27  C38 UNL     1     -17.625  47.327 -19.267  1.00  0.00     0.000 A 
HETATM   28  C39 UNL     1     -16.422  46.974 -19.873  1.00  0.00     0.001 A 
HETATM   29  C40 UNL     1     -16.423  46.370 -21.131  1.00  0.00     0.007 A 
ENDBRANCH  18  24
ENDBRANCH  17  18
ENDBRANCH  15  17
ENDBRANCH   9  13
ENDBRANCH   6   9
ENDBRANCH   4   5
ENDBRANCH   3   4
ENDBRANCH   1   3
BRANCH   1  30
HETATM   30  O3  UNL     1      -7.820  47.472 -24.504  1.00  0.00    -0.314 OA
BRANCH  30  31
HETATM   31  C9  UNL     1      -6.718  48.384 -24.588  1.00  0.00     0.260 C 
BRANCH  31  32
HETATM   32  C10 UNL     1      -5.945  48.485 -23.279  1.00  0.00     0.185 C 
HETATM   33  O4  UNL     1      -6.025  47.613 -22.404  1.00  0.00    -0.292 OA
BRANCH  32  34
HETATM   34  C11 UNL     1      -5.044  49.713 -23.034  1.00  0.00     0.128 C 
HETATM   35  C12 UNL     1      -4.468  49.903 -21.613  1.00  0.00     0.047 C 
HETATM   36  C13 UNL     1      -3.071  50.537 -21.785  1.00  0.00     0.009 C 
HETATM   37  C14 UNL     1      -2.986  50.881 -23.267  1.00  0.00     0.002 C 
HETATM   38  C15 UNL     1      -1.606  51.119 -23.892  1.00  0.00    -0.002 C 
HETATM   39  C28 UNL     1      -3.781  49.745 -23.952  1.00  0.00     0.001 C 
HETATM   40  C16 UNL     1      -0.828  52.202 -23.114  1.00  0.00     0.010 C 
HETATM   41  C25 UNL     1      -1.805  51.521 -25.400  1.00  0.00     0.031 C 
HETATM   42  C17 UNL     1       0.475  52.614 -23.800  1.00  0.00     0.035 C 
HETATM   43  C18 UNL     1       0.181  52.988 -25.231  1.00  0.00    -0.068 C 
HETATM   44  C19 UNL     1       0.337  54.259 -25.642  1.00  0.00     0.053 C 
HETATM   45  C23 UNL     1      -0.430  51.867 -26.088  1.00  0.00    -0.014 C 
HETATM   46  C20 UNL     1      -0.195  54.709 -26.949  1.00  0.00     0.149 C 
HETATM   47  O6  UNL     1       0.047  55.847 -27.344  1.00  0.00    -0.293 OA
HETATM   48  C21 UNL     1      -1.109  53.766 -27.690  1.00  0.00     0.084 C 
HETATM   49  C22 UNL     1      -0.581  52.347 -27.560  1.00  0.00     0.022 C 
HETATM   50  C24 UNL     1       0.552  50.668 -26.138  1.00  0.00     0.020 C 
HETATM   51  C26 UNL     1      -2.719  50.525 -26.170  1.00  0.00     0.124 C 
HETATM   52  C27 UNL     1      -4.021  50.175 -25.417  1.00  0.00     0.045 C 
HETATM   53  C29 UNL     1      -3.062  48.371 -23.893  1.00  0.00     0.019 C 
BRANCH  34  54
HETATM   54  O5  UNL     1      -5.870  50.860 -23.298  1.00  0.00    -0.381 OA
HETATM   55  H16 UNL     1      -6.435  50.633 -24.066  1.00  0.00     0.211 HD
ENDBRANCH  34  54
BRANCH  51  56
HETATM   56  O7  UNL     1      -2.024  49.331 -26.495  1.00  0.00    -0.395 OA
HETATM   57  H37 UNL     1      -2.600  48.802 -27.075  1.00  0.00     0.210 HD
ENDBRANCH  51  56
ENDBRANCH  32  34
ENDBRANCH  31  32
ENDBRANCH  30  31
ENDBRANCH   1  30
TORSDOF 18
ENDMDL
