MODEL 1
REMARK minimizedAffinity -9.04823589
REMARK  8 active torsions:
REMARK  status: ('A' for Active; 'I' for Inactive)
REMARK    1  A    between atoms: C2_2  and  C3_3 
REMARK    2  A    between atoms: C2_2  and  C28_31 
REMARK    3  A    between atoms: C3_3  and  C4_4 
REMARK    4  A    between atoms: C4_4  and  O1_5 
REMARK    5  A    between atoms: C4_4  and  C5_6 
REMARK    6  A    between atoms: C5_6  and  C7_8 
REMARK    7  A    between atoms: C21_22  and  C23_24 
REMARK    8  A    between atoms: C23_24  and  O3_26 
ROOT
HETATM    1  C7  UNL     1      -1.331  48.827 -18.611  1.00  0.00     0.001 C 
HETATM    2  C8  UNL     1      -2.576  47.917 -18.875  1.00  0.00     0.007 C 
HETATM    3  C9  UNL     1      -3.036  48.172 -20.321  1.00  0.00     0.015 C 
HETATM    4  C10 UNL     1      -1.833  48.851 -20.990  1.00  0.00    -0.013 C 
HETATM    5  C11 UNL     1      -0.827  47.721 -21.385  1.00  0.00     0.021 C 
HETATM    6  C12 UNL     1      -2.051  49.636 -22.277  1.00  0.00    -0.068 C 
HETATM    7  C13 UNL     1      -1.212  50.664 -22.578  1.00  0.00    -0.068 C 
HETATM    8  C14 UNL     1      -0.122  51.143 -21.626  1.00  0.00     0.036 C 
HETATM    9  C15 UNL     1      -0.009  50.412 -20.270  1.00  0.00     0.015 C 
HETATM   10  C16 UNL     1      -1.352  49.811 -19.825  1.00  0.00    -0.029 C 
HETATM   11  C17 UNL     1      -2.345  50.979 -19.559  1.00  0.00     0.016 C 
HETATM   12  C18 UNL     1      -1.391  51.440 -23.877  1.00  0.00    -0.015 C 
HETATM   13  C19 UNL     1      -2.292  52.657 -23.555  1.00  0.00     0.020 C 
HETATM   14  C20 UNL     1      -0.119  51.911 -24.621  1.00  0.00     0.034 C 
HETATM   15  C21 UNL     1      -0.500  51.968 -26.132  1.00  0.00     0.043 C 
HETATM   16  C22 UNL     1      -0.595  53.412 -26.645  1.00  0.00     0.027 C 
HETATM   17  C24 UNL     1      -1.879  51.263 -26.243  1.00  0.00     0.025 C 
HETATM   18  C25 UNL     1      -1.973  50.482 -24.938  1.00  0.00    -0.001 C 
HETATM   19  C26 UNL     1      -3.325  49.941 -24.522  1.00  0.00     0.010 C 
HETATM   20  C27 UNL     1      -3.173  49.170 -23.199  1.00  0.00     0.036 C 
ENDROOT
BRANCH   1  21
HETATM   21  C5  UNL     1      -1.229  49.252 -17.109  1.00  0.00     0.015 C 
HETATM   22  C6  UNL     1      -2.104  50.438 -16.671  1.00  0.00     0.013 C 
BRANCH  21  23
HETATM   23  C4  UNL     1       0.202  49.437 -16.536  1.00  0.00     0.126 C 
BRANCH  23  24
HETATM   24  C3  UNL     1       0.356  50.672 -15.624  1.00  0.00     0.065 C 
BRANCH  24  25
HETATM   25  C2  UNL     1       1.306  51.718 -16.196  1.00  0.00    -0.083 C 
HETATM   26  C1  UNL     1       1.050  52.283 -17.389  1.00  0.00     0.015 C 
BRANCH  25  27
HETATM   27  C28 UNL     1       2.540  52.033 -15.355  1.00  0.00     0.005 C 
HETATM   28  C29 UNL     1       2.821  50.893 -14.372  1.00  0.00     0.014 C 
HETATM   29  C30 UNL     1       3.799  52.344 -16.175  1.00  0.00     0.014 C 
ENDBRANCH  25  27
ENDBRANCH  24  25
ENDBRANCH  23  24
BRANCH  23  30
HETATM   30  O1  UNL     1       0.607  48.256 -15.848  1.00  0.00    -0.395 OA
HETATM   31  H6  UNL     1       1.525  48.400 -15.556  1.00  0.00     0.210 HD
ENDBRANCH  23  30
ENDBRANCH  21  23
ENDBRANCH   1  21
BRANCH  15  32
HETATM   32  C23 UNL     1       0.568  51.244 -26.950  1.00  0.00     0.148 C 
HETATM   33  O2  UNL     1       1.464  50.539 -26.513  1.00  0.00    -0.649 OA
BRANCH  32  34
HETATM   34  O3  UNL     1       0.440  51.402 -28.281  1.00  0.00    -0.776 OA
HETATM   35  H34 UNL     1       1.176  50.872 -28.654  1.00  0.00     0.167 HD
ENDBRANCH  32  34
ENDBRANCH  15  32
TORSDOF 8
ENDMDL
