MODEL 1
REMARK minimizedAffinity -6.77999878
REMARK CNNscore 0.514385819
REMARK CNNaffinity 6.58414698
REMARK  9 active torsions:
REMARK  status: ('A' for Active; 'I' for Inactive)
REMARK    1  A    between atoms: C12_14  and  C13_15 
REMARK    2  A    between atoms: C13_15  and  C15_17 
REMARK    3  A    between atoms: C15_17  and  C16_18 
REMARK    4  A    between atoms: C16_18  and  C17_19 
REMARK    5  A    between atoms: C18_20  and  C20_22 
REMARK    6  A    between atoms: C26_29  and  C27_30 
REMARK    7  A    between atoms: C27_30  and  C28_31 
REMARK    8  A    between atoms: C28_31  and  C29_32 
REMARK    9  A    between atoms: C29_32  and  O5_34 
ROOT
HETATM    1  C1  UNL     1       6.018  57.939  -4.170  1.00  0.00     0.025 C 
HETATM    2  C2  UNL     1       5.146  57.672  -5.149  1.00  0.00     0.015 C 
HETATM    3  C3  UNL     1       3.678  57.716  -4.945  1.00  0.00     0.289 C 
HETATM    4  O1  UNL     1       3.094  57.731  -3.878  1.00  0.00    -0.260 OA
HETATM    5  O2  UNL     1       3.095  57.735  -6.177  1.00  0.00    -0.311 OA
HETATM    6  C4  UNL     1       4.111  57.957  -7.162  1.00  0.00     0.142 C 
HETATM    7  C5  UNL     1       3.724  57.378  -8.513  1.00  0.00     0.039 C 
HETATM    8  C6  UNL     1       3.519  55.861  -8.445  1.00  0.00     0.006 C 
HETATM    9  C7  UNL     1       4.804  55.159  -7.935  1.00  0.00    -0.027 A 
HETATM   10  C8  UNL     1       5.433  54.130  -8.880  1.00  0.00     0.011 C 
HETATM   11  C9  UNL     1       4.475  53.216  -9.668  1.00  0.00     0.011 C 
HETATM   12  C10 UNL     1       3.009  53.673  -9.671  1.00  0.00    -0.032 C 
HETATM   13  C11 UNL     1       2.336  53.114  -8.387  1.00  0.00     0.016 C 
HETATM   14  C12 UNL     1       2.162  53.268 -10.922  1.00  0.00    -0.002 C 
HETATM   15  C21 UNL     1       1.064  54.366 -10.994  1.00  0.00     0.006 C 
HETATM   16  C22 UNL     1       1.493  55.499 -10.043  1.00  0.00     0.011 C 
HETATM   17  C23 UNL     1       2.989  55.243  -9.771  1.00  0.00    -0.032 C 
HETATM   18  C24 UNL     1       3.762  55.830 -10.997  1.00  0.00     0.016 C 
HETATM   19  C25 UNL     1       4.816  54.823  -6.460  1.00  0.00     0.022 A 
HETATM   20  C26 UNL     1       5.736  55.930  -6.939  1.00  0.00    -0.021 A 
HETATM   21  C30 UNL     1       5.405  57.399  -6.590  1.00  0.00     0.063 C 
ENDROOT
BRANCH  14  22
HETATM   22  C13 UNL     1       1.626  51.824 -11.162  1.00  0.00    -0.014 C 
HETATM   23  C14 UNL     1       2.431  50.672 -10.546  1.00  0.00     0.010 C 
BRANCH  22  24
HETATM   24  C15 UNL     1       1.352  51.570 -12.662  1.00  0.00     0.008 C 
BRANCH  24  25
HETATM   25  C16 UNL     1       2.314  50.558 -13.295  1.00  0.00     0.028 C 
BRANCH  25  26
HETATM   26  C17 UNL     1       3.292  51.239 -14.215  1.00  0.00    -0.017 C 
HETATM   27  C18 UNL     1       3.034  51.896 -15.361  1.00  0.00    -0.028 C 
HETATM   28  C19 UNL     1       4.107  52.569 -16.164  1.00  0.00     0.051 C 
BRANCH  27  29
HETATM   29  C20 UNL     1       1.667  51.998 -15.955  1.00  0.00     0.265 C 
HETATM   30  O3  UNL     1       1.404  51.792 -17.133  1.00  0.00    -0.302 OA
ENDBRANCH  27  29
ENDBRANCH  25  26
ENDBRANCH  24  25
ENDBRANCH  22  24
ENDBRANCH  14  22
BRANCH  20  31
HETATM   31  C27 UNL     1       7.259  55.687  -6.990  1.00  0.00     0.021 C 
BRANCH  31  32
HETATM   32  C28 UNL     1       7.934  55.161  -5.729  1.00  0.00     0.111 C 
BRANCH  32  33
HETATM   33  C29 UNL     1       9.186  55.907  -5.367  1.00  0.00     0.139 C 
HETATM   34  O4  UNL     1       9.371  57.105  -5.485  1.00  0.00    -0.650 OA
BRANCH  33  35
HETATM   35  O5  UNL     1      10.133  55.118  -4.823  1.00  0.00    -0.776 OA
HETATM   36  H41 UNL     1      10.855  55.750  -4.615  1.00  0.00     0.167 HD
ENDBRANCH  33  35
ENDBRANCH  32  33
ENDBRANCH  31  32
ENDBRANCH  20  31
TORSDOF 9
ENDMDL
