MODEL 1
REMARK minimizedAffinity -7.31691742
REMARK CNNscore 0.538349867
REMARK CNNaffinity 6.8551383
REMARK  4 active torsions:
REMARK  status: ('A' for Active; 'I' for Inactive)
REMARK    1  A    between atoms: C4_4  and  C5_5 
REMARK    2  A    between atoms: C5_5  and  C6_6 
REMARK    3  A    between atoms: C6_6  and  C7_7 
REMARK    4  A    between atoms: C7_7  and  C9_9 
ROOT
HETATM    1  C9  UNL     1      -0.321  53.098 -10.395  1.00  0.00    -0.002 C 
HETATM    2  C10 UNL     1       0.240  52.486 -11.700  1.00  0.00     0.006 C 
HETATM    3  C11 UNL     1       1.764  52.527 -11.609  1.00  0.00     0.011 C 
HETATM    4  C12 UNL     1       2.118  52.823 -10.125  1.00  0.00    -0.032 C 
HETATM    5  C13 UNL     1       2.028  51.456  -9.389  1.00  0.00     0.016 C 
HETATM    6  C14 UNL     1       3.577  53.444 -10.038  1.00  0.00     0.004 C 
HETATM    7  C15 UNL     1       4.592  52.787  -9.072  1.00  0.00     0.007 C 
HETATM    8  C16 UNL     1       4.472  53.238  -7.626  1.00  0.00     0.007 C 
HETATM    9  C17 UNL     1       4.492  54.756  -7.392  1.00  0.00     0.010 C 
HETATM   10  C18 UNL     1       5.757  55.344  -6.682  1.00  0.00     0.018 C 
HETATM   11  C19 UNL     1       5.797  54.904  -5.207  1.00  0.00     0.023 C 
HETATM   12  C20 UNL     1       7.083  54.948  -7.348  1.00  0.00     0.023 C 
HETATM   13  C21 UNL     1       5.643  56.883  -6.690  1.00  0.00     0.135 C 
HETATM   14  O1  UNL     1       6.617  57.614  -6.501  1.00  0.00    -0.297 OA
HETATM   15  C22 UNL     1       4.255  57.472  -6.846  1.00  0.00     0.080 C 
HETATM   16  C23 UNL     1       3.587  56.996  -8.135  1.00  0.00     0.018 C 
HETATM   17  C24 UNL     1       4.092  55.628  -8.582  1.00  0.00    -0.026 A 
HETATM   18  C25 UNL     1       4.922  55.643  -9.852  1.00  0.00     0.021 A 
HETATM   19  C26 UNL     1       3.568  54.968  -9.869  1.00  0.00    -0.027 A 
HETATM   20  C27 UNL     1       2.533  55.646 -10.718  1.00  0.00     0.011 C 
HETATM   21  C28 UNL     1       1.114  55.235 -10.356  1.00  0.00     0.011 C 
HETATM   22  C29 UNL     1       0.932  53.811  -9.752  1.00  0.00    -0.032 C 
HETATM   23  C30 UNL     1       0.772  53.926  -8.222  1.00  0.00     0.016 C 
ENDROOT
BRANCH   1  24
HETATM   24  C7  UNL     1      -1.645  53.883 -10.650  1.00  0.00    -0.014 C 
HETATM   25  C8  UNL     1      -1.562  55.358 -10.257  1.00  0.00     0.010 C 
BRANCH  24  26
HETATM   26  C6  UNL     1      -2.880  53.227  -9.975  1.00  0.00     0.008 C 
BRANCH  26  27
HETATM   27  C5  UNL     1      -4.091  52.999 -10.889  1.00  0.00     0.028 C 
BRANCH  27  28
HETATM   28  C4  UNL     1      -3.635  52.681 -12.288  1.00  0.00    -0.025 C 
HETATM   29  C2  UNL     1      -3.275  51.486 -12.798  1.00  0.00    -0.091 C 
HETATM   30  C1  UNL     1      -2.851  51.368 -14.241  1.00  0.00     0.042 C 
HETATM   31  C3  UNL     1      -3.259  50.183 -12.047  1.00  0.00     0.042 C 
ENDBRANCH  27  28
ENDBRANCH  26  27
ENDBRANCH  24  26
ENDBRANCH   1  24
TORSDOF 4
ENDMDL
