MODEL 1
REMARK minimizedAffinity -9.73741245
REMARK CNNscore 0.36803472
REMARK CNNaffinity 7.70048666
REMARK  10 active torsions:
REMARK  status: ('A' for Active; 'I' for Inactive)
REMARK    1  A    between atoms: N1_2  and  C2_3 
REMARK    2  A    between atoms: C2_3  and  O1_4 
REMARK    3  A    between atoms: O1_4  and  C3_5 
REMARK    4  A    between atoms: C8_10  and  C9_11 
REMARK    5  A    between atoms: C9_11  and  C10_12 
REMARK    6  A    between atoms: C20_24  and  O2_25 
REMARK    7  A    between atoms: C26_32  and  C27_33 
REMARK    8  A    between atoms: C27_33  and  O4_34 
REMARK    9  A    between atoms: C36_44  and  O6_45 
REMARK   10  A    between atoms: C43_53  and  N3_54 
ROOT
HETATM    1  C3  UNL     1      -1.333  49.626 -15.291  1.00  0.00     0.139 C 
HETATM    2  C4  UNL     1      -2.368  49.731 -16.452  1.00  0.00     0.086 C 
HETATM    3  C5  UNL     1      -1.953  50.529 -17.657  1.00  0.00    -0.014 C 
HETATM    4  C6  UNL     1      -2.719  50.522 -18.852  1.00  0.00    -0.034 C 
HETATM    5  C7  UNL     1      -4.055  49.802 -18.925  1.00  0.00     0.050 C 
HETATM    6  C8  UNL     1      -4.275  49.116 -20.284  1.00  0.00     0.028 C 
HETATM    7  C18 UNL     1      -4.130  50.160 -21.374  1.00  0.00    -0.040 A 
HETATM    8  C19 UNL     1      -4.972  50.100 -22.499  1.00  0.00     0.044 A 
HETATM    9  C20 UNL     1      -4.904  51.083 -23.472  1.00  0.00     0.066 A 
HETATM   10  C21 UNL     1      -4.013  52.137 -23.342  1.00  0.00     0.037 A 
HETATM   11  C22 UNL     1      -3.171  52.196 -22.224  1.00  0.00     0.015 A 
HETATM   12  C23 UNL     1      -3.181  51.204 -21.226  1.00  0.00    -0.016 A 
HETATM   13  C24 UNL     1      -2.296  51.231 -20.015  1.00  0.00     0.016 C 
HETATM   14  C25 UNL     1      -1.049  51.890 -19.949  1.00  0.00     0.090 C 
HETATM   15  O3  UNL     1      -0.561  52.461 -21.100  1.00  0.00    -0.342 OA
HETATM   16  C26 UNL     1       0.837  52.774 -21.115  1.00  0.00     0.152 C 
HETATM   17  C28 UNL     1       1.190  53.606 -19.894  1.00  0.00     0.039 C 
HETATM   18  C29 UNL     1       0.951  52.760 -18.653  1.00  0.00     0.047 C 
HETATM   19  C30 UNL     1      -0.338  51.980 -18.740  1.00  0.00     0.010 C 
HETATM   20  C31 UNL     1      -0.810  51.312 -17.601  1.00  0.00     0.086 C 
HETATM   21  O5  UNL     1      -0.064  51.458 -16.474  1.00  0.00    -0.337 OA
HETATM   22  C32 UNL     1      -0.629  51.037 -15.215  1.00  0.00     0.200 C 
HETATM   23  C33 UNL     1       0.555  51.124 -14.250  1.00  0.00    -0.023 C 
HETATM   24  C34 UNL     1       0.386  51.654 -12.965  1.00  0.00     0.049 C 
HETATM   25  C35 UNL     1       1.398  51.492 -12.021  1.00  0.00     0.102 C 
HETATM   26  C36 UNL     1       2.653  51.019 -12.407  1.00  0.00     0.099 C 
HETATM   27  C37 UNL     1       2.881  50.593 -13.702  1.00  0.00     0.040 C 
HETATM   28  C38 UNL     1       1.820  50.609 -14.607  1.00  0.00     0.013 C 
HETATM   29  O7  UNL     1       1.209  51.689 -10.676  1.00  0.00    -0.347 OA
HETATM   30  C39 UNL     1       0.028  51.040 -10.146  1.00  0.00     0.188 C 
HETATM   31  C40 UNL     1      -0.073  49.517 -10.406  1.00  0.00     0.120 C 
HETATM   32  C41 UNL     1      -0.789  49.233 -11.666  1.00  0.00    -0.102 C 
HETATM   33  C42 UNL     1      -1.366  49.173 -12.722  1.00  0.00    -0.068 C 
HETATM   34  C43 UNL     1      -2.171  49.288 -13.959  1.00  0.00     0.336 C 
ENDROOT
BRANCH   6  35
HETATM   35  C9  UNL     1      -3.326  47.912 -20.471  1.00  0.00     0.048 C 
BRANCH  35  36
HETATM   36  C10 UNL     1      -4.041  46.579 -20.463  1.00  0.00    -0.057 A 
HETATM   37  C11 UNL     1      -5.010  46.296 -21.362  1.00  0.00     0.020 A 
HETATM   38  C12 UNL     1      -5.643  45.022 -21.308  1.00  0.00    -0.011 A 
HETATM   39  C13 UNL     1      -6.586  44.421 -22.026  1.00  0.00     0.006 A 
HETATM   40  C15 UNL     1      -5.307  44.016 -20.292  1.00  0.00     0.038 A 
HETATM   41  C14 UNL     1      -6.865  43.058 -21.486  1.00  0.00     0.148 A 
HETATM   42  N2  UNL     1      -5.962  42.893 -20.320  1.00  0.00    -0.386 N 
ATOM     43  H2  UNL     1      -5.876  42.093 -19.693  1.00  0.00     0.160 HD
HETATM   44  C16 UNL     1      -4.252  44.393 -19.330  1.00  0.00     0.030 A 
HETATM   45  C17 UNL     1      -3.671  45.600 -19.440  1.00  0.00     0.009 A 
ENDBRANCH  35  36
ENDBRANCH   6  35
BRANCH   9  46
HETATM   46  O2  UNL     1      -5.746  50.991 -24.540  1.00  0.00    -0.361 OA
HETATM   47  H21 UNL     1      -5.563  51.731 -25.139  1.00  0.00     0.217 HD
ENDBRANCH   9  46
BRANCH   1  48
HETATM   48  O1  UNL     1      -0.299  48.684 -15.664  1.00  0.00    -0.345 OA
BRANCH  48  49
HETATM   49  C2  UNL     1      -0.001  47.577 -14.842  1.00  0.00     0.438 C 
BRANCH  49  50
HETATM   50  N1  UNL     1       1.287  47.046 -15.228  1.00  0.00     0.102 N 
HETATM   51  C1  UNL     1       1.720  45.986 -14.333  1.00  0.00     0.309 C 
HETATM   52  H4  UNL     1       1.198  46.690 -16.177  1.00  0.00     0.318 HD
ENDBRANCH  49  50
ENDBRANCH  48  49
ENDBRANCH   1  48
BRANCH  34  53
HETATM   53  N3  UNL     1      -3.105  48.135 -14.075  1.00  0.00     0.098 N 
HETATM   54  C44 UNL     1      -3.277  47.660 -15.441  1.00  0.00     0.308 C 
HETATM   55  H42 UNL     1      -2.782  47.361 -13.506  1.00  0.00     0.317 HD
ENDBRANCH  34  53
BRANCH  16  56
HETATM   56  C27 UNL     1       1.133  53.556 -22.402  1.00  0.00     0.196 C 
BRANCH  56  57
HETATM   57  O4  UNL     1       1.749  54.816 -22.125  1.00  0.00    -0.398 OA
HETATM   58  H27 UNL     1       1.158  55.314 -21.539  1.00  0.00     0.209 HD
ENDBRANCH  56  57
ENDBRANCH  16  56
BRANCH  26  59
HETATM   59  O6  UNL     1       3.669  50.906 -11.500  1.00  0.00    -0.358 OA
HETATM   60  H34 UNL     1       3.308  51.283 -10.673  1.00  0.00     0.217 HD
ENDBRANCH  26  59
TORSDOF 10
ENDMDL
