MODEL 1
REMARK minimizedAffinity -6.86802435
REMARK  6 active torsions:
REMARK  status: ('A' for Active; 'I' for Inactive)
REMARK    1  A    between atoms: C9_10  and  C10_11 
REMARK    2  A    between atoms: C11_13  and  O3_14 
REMARK    3  A    between atoms: C12_15  and  C13_16 
REMARK    4  A    between atoms: C14_18  and  O5_19 
REMARK    5  A    between atoms: C16_21  and  C17_22 
REMARK    6  A    between atoms: C17_22  and  C18_23 
ROOT
HETATM    1  C1  UNL     1       0.235  14.584  17.651  1.00  0.00     0.043 C 
HETATM    2  C2  UNL     1       0.595  13.408  18.526  1.00  0.00    -0.087 C 
HETATM    3  C3  UNL     1       1.031  12.265  17.962  1.00  0.00    -0.024 C 
HETATM    4  C4  UNL     1       1.432  11.002  18.658  1.00  0.00     0.030 C 
HETATM    5  C5  UNL     1       2.931  10.708  18.606  1.00  0.00     0.042 C 
HETATM    6  C6  UNL     1       3.955  11.764  19.133  1.00  0.00     0.069 C 
HETATM    7  C7  UNL     1       4.110  12.900  18.093  1.00  0.00     0.047 C 
HETATM    8  O1  UNL     1       5.221  11.026  19.023  1.00  0.00    -0.338 OA
HETATM    9  C8  UNL     1       6.236  11.443  19.834  1.00  0.00     0.095 A 
HETATM   10  C9  UNL     1       7.534  11.533  19.322  1.00  0.00     0.070 A 
HETATM   11  C11 UNL     1       8.577  11.999  20.138  1.00  0.00     0.097 A 
HETATM   12  C12 UNL     1       8.316  12.338  21.469  1.00  0.00     0.069 A 
HETATM   13  C14 UNL     1       7.016  12.198  21.983  1.00  0.00     0.091 A 
HETATM   14  C15 UNL     1       5.971  11.736  21.171  1.00  0.00     0.015 A 
HETATM   15  C16 UNL     1       4.555  11.568  21.657  1.00  0.00     0.032 C 
HETATM   16  C21 UNL     1       3.619  12.260  20.611  1.00  0.00     0.034 C 
HETATM   17  C22 UNL     1       3.731  13.777  20.770  1.00  0.00     0.006 A 
HETATM   18  C23 UNL     1       2.614  14.828  20.663  1.00  0.00    -0.001 A 
HETATM   19  C24 UNL     1       1.107  14.790  20.647  1.00  0.00     0.010 C 
HETATM   20  C25 UNL     1       0.394  13.603  20.013  1.00  0.00     0.034 C 
HETATM   21  C26 UNL     1       3.305  14.555  22.005  1.00  0.00    -0.039 A 
HETATM   22  C27 UNL     1       4.253  15.617  22.517  1.00  0.00     0.015 C 
HETATM   23  C28 UNL     1       2.552  13.870  23.125  1.00  0.00     0.015 C 
ENDROOT
BRANCH  15  24
HETATM   24  C17 UNL     1       4.129  10.103  21.925  1.00  0.00     0.014 C 
BRANCH  24  25
HETATM   25  C18 UNL     1       2.774   9.929  22.655  1.00  0.00    -0.022 C 
HETATM   26  C19 UNL     1       2.903  10.190  24.161  1.00  0.00     0.009 C 
HETATM   27  C20 UNL     1       2.246   8.504  22.445  1.00  0.00     0.009 C 
ENDBRANCH  24  25
ENDBRANCH  15  24
BRANCH  13  28
HETATM   28  O5  UNL     1       6.719  12.508  23.287  1.00  0.00    -0.359 OA
HETATM   29  H15 UNL     1       7.523  12.895  23.705  1.00  0.00     0.217 HD
ENDBRANCH  13  28
BRANCH  10  30
HETATM   30  C10 UNL     1       7.787  11.158  17.917  1.00  0.00     0.275 C 
HETATM   31  O2  UNL     1       8.050   9.996  17.628  1.00  0.00    -0.301 OA
ENDBRANCH  10  30
BRANCH  12  32
HETATM   32  C13 UNL     1       9.413  12.850  22.320  1.00  0.00     0.275 C 
HETATM   33  O4  UNL     1       9.405  12.649  23.532  1.00  0.00    -0.301 OA
ENDBRANCH  12  32
BRANCH  11  34
HETATM   34  O3  UNL     1       9.859  12.136  19.665  1.00  0.00    -0.359 OA
HETATM   35  H13 UNL     1       9.882  11.855  18.716  1.00  0.00     0.217 HD
ENDBRANCH  11  34
TORSDOF 6
ENDMDL
