MODEL 1
REMARK minimizedAffinity -9.10824776
REMARK CNNscore 0.419090331
REMARK CNNaffinity 6.08948517
REMARK  11 active torsions:
REMARK  status: ('A' for Active; 'I' for Inactive)
REMARK    1  A    between atoms: C3_3  and  O1_4 
REMARK    2  A    between atoms: N1_14  and  O2_16 
REMARK    3  A    between atoms: O2_16  and  C13_17 
REMARK    4  A    between atoms: C13_17  and  C14_18 
REMARK       I    between atoms: C14_18  and  N2_20 
REMARK    5  A    between atoms: N2_20  and  C15_21 
REMARK    6  A    between atoms: C15_21  and  C16_22 
REMARK    7  A    between atoms: C15_21  and  C17_25 
REMARK    8  A    between atoms: C16_22  and  O5_24 
REMARK    9  A    between atoms: C17_25  and  O6_26 
REMARK   10  A    between atoms: C17_25  and  C18_27 
REMARK   11  A    between atoms: C22_31  and  N3_32 
ROOT
HETATM    1  C1  UNL     1      -0.020  51.606 -24.799  1.00  0.00     0.015 C 
HETATM    2  C2  UNL     1      -1.211  51.459 -24.875  1.00  0.00    -0.078 C 
HETATM    3  C3  UNL     1      -2.670  51.293 -24.970  1.00  0.00     0.128 C 
HETATM    4  C4  UNL     1      -3.424  52.303 -24.097  1.00  0.00     0.052 C 
HETATM    5  C5  UNL     1      -4.755  51.633 -23.736  1.00  0.00     0.010 C 
HETATM    6  C6  UNL     1      -4.710  50.207 -24.322  1.00  0.00     0.002 C 
HETATM    7  C7  UNL     1      -5.498  49.138 -23.531  1.00  0.00    -0.004 C 
HETATM    8  C8  UNL     1      -6.962  49.565 -23.327  1.00  0.00     0.010 C 
HETATM    9  C9  UNL     1      -7.765  48.499 -22.593  1.00  0.00     0.035 C 
HETATM   10  C10 UNL     1      -7.117  48.145 -21.276  1.00  0.00    -0.069 C 
HETATM   11  C11 UNL     1      -7.829  48.232 -20.136  1.00  0.00     0.030 C 
HETATM   12  C12 UNL     1      -7.238  47.832 -18.830  1.00  0.00     0.032 C 
HETATM   13  N1  UNL     1      -7.716  48.098 -17.654  1.00  0.00    -0.271 N 
ATOM     14  H1  UNL     1      -7.282  47.800 -16.780  1.00  0.00     0.194 HD
HETATM   15  C24 UNL     1      -5.965  47.018 -18.891  1.00  0.00     0.060 C 
HETATM   16  C25 UNL     1      -5.029  47.637 -19.916  1.00  0.00     0.020 C 
HETATM   17  C26 UNL     1      -5.646  47.711 -21.346  1.00  0.00    -0.016 C 
HETATM   18  C27 UNL     1      -5.584  46.301 -21.978  1.00  0.00     0.020 C 
HETATM   19  C28 UNL     1      -4.831  48.774 -22.179  1.00  0.00     0.002 C 
HETATM   20  C29 UNL     1      -3.362  48.375 -22.416  1.00  0.00     0.007 C 
HETATM   21  C30 UNL     1      -2.578  49.479 -23.127  1.00  0.00     0.014 C 
HETATM   22  C31 UNL     1      -3.195  49.907 -24.484  1.00  0.00     0.003 C 
HETATM   23  C32 UNL     1      -2.964  48.802 -25.534  1.00  0.00     0.020 C 
ENDROOT
BRANCH   3  24
HETATM   24  O1  UNL     1      -3.062  51.516 -26.326  1.00  0.00    -0.377 OA
HETATM   25  H2  UNL     1      -2.676  52.367 -26.596  1.00  0.00     0.211 HD
ENDBRANCH   3  24
BRANCH  13  26
HETATM   26  O2  UNL     1      -8.904  48.846 -17.727  1.00  0.00    -0.271 OA
BRANCH  26  27
HETATM   27  C13 UNL     1      -9.899  48.219 -16.933  1.00  0.00     0.303 C 
BRANCH  27  28
HETATM   28  C14 UNL     1     -11.125  47.797 -17.740  1.00  0.00     0.244 C 
HETATM   29  O3  UNL     1     -11.260  47.961 -18.949  1.00  0.00    -0.271 OA
HETATM   30  N2  UNL     1     -12.107  47.205 -16.974  1.00  0.00    -0.342 N 
HETATM   31  H16 UNL     1     -11.955  47.015 -15.987  1.00  0.00     0.163 HD
BRANCH  30  32
HETATM   32  C15 UNL     1     -13.341  46.662 -17.563  1.00  0.00     0.216 C 
BRANCH  32  33
HETATM   33  C16 UNL     1     -14.166  46.004 -16.451  1.00  0.00     0.166 C 
HETATM   34  O4  UNL     1     -14.304  46.404 -15.306  1.00  0.00    -0.648 OA
BRANCH  33  35
HETATM   35  O5  UNL     1     -14.809  44.875 -16.842  1.00  0.00    -0.775 OA
HETATM   36  H18 UNL     1     -15.300  44.599 -16.039  1.00  0.00     0.167 HD
ENDBRANCH  33  35
ENDBRANCH  32  33
BRANCH  32  37
HETATM   37  C17 UNL     1     -14.168  47.754 -18.291  1.00  0.00     0.184 C 
BRANCH  37  38
HETATM   38  O6  UNL     1     -14.812  48.591 -17.311  1.00  0.00    -0.388 OA
HETATM   39  H20 UNL     1     -15.771  48.434 -17.371  1.00  0.00     0.210 HD
ENDBRANCH  37  38
BRANCH  37  40
HETATM   40  C18 UNL     1     -15.187  47.330 -19.343  1.00  0.00    -0.025 A 
HETATM   41  C19 UNL     1     -14.717  47.048 -20.643  1.00  0.00     0.010 A 
HETATM   42  C20 UNL     1     -15.585  46.656 -21.667  1.00  0.00     0.003 A 
HETATM   43  C21 UNL     1     -16.948  46.530 -21.415  1.00  0.00     0.036 A 
HETATM   44  C22 UNL     1     -17.431  46.790 -20.127  1.00  0.00     0.103 A 
HETATM   45  C23 UNL     1     -16.560  47.179 -19.095  1.00  0.00     0.045 A 
BRANCH  44  46
HETATM   46  N3  UNL     1     -18.867  46.652 -19.853  1.00  0.00    -0.116 N 
HETATM   47  O7  UNL     1     -19.399  47.493 -19.115  1.00  0.00    -0.532 OA
HETATM   48  O8  UNL     1     -19.465  45.700 -20.376  1.00  0.00    -0.532 OA
ENDBRANCH  44  46
ENDBRANCH  37  40
ENDBRANCH  32  37
ENDBRANCH  30  32
ENDBRANCH  27  28
ENDBRANCH  26  27
ENDBRANCH  13  26
TORSDOF 11
ENDMDL
