MODEL 1
REMARK minimizedAffinity -7.08428669
REMARK CNNscore 0.686034918
REMARK CNNaffinity 6.55768442
REMARK  5 active torsions:
REMARK  status: ('A' for Active; 'I' for Inactive)
REMARK    1  A    between atoms: C2_2  and  C4_4 
REMARK    2  A    between atoms: C10_10  and  C11_11 
REMARK    3  A    between atoms: C11_11  and  O2_13 
REMARK    4  A    between atoms: C20_22  and  C22_24 
REMARK    5  A    between atoms: C22_24  and  O3_25 
ROOT
HETATM    1  C4  UNL     1       4.084  56.440  -8.560  1.00  0.00     0.025 C 
HETATM    2  C5  UNL     1       4.311  57.733  -7.745  1.00  0.00     0.037 C 
HETATM    3  C6  UNL     1       2.976  57.990  -7.131  1.00  0.00    -0.023 C 
HETATM    4  C7  UNL     1       2.171  56.926  -7.221  1.00  0.00    -0.078 C 
HETATM    5  C8  UNL     1       0.781  56.799  -6.704  1.00  0.00     0.036 C 
HETATM    6  C9  UNL     1      -0.131  56.141  -7.749  1.00  0.00     0.026 C 
HETATM    7  C10 UNL     1       0.443  54.800  -8.333  1.00  0.00     0.057 C 
HETATM    8  C12 UNL     1       1.847  55.149  -8.972  1.00  0.00     0.014 C 
HETATM    9  C13 UNL     1       2.494  53.995  -9.758  1.00  0.00     0.007 C 
HETATM   10  C14 UNL     1       1.546  53.304 -10.736  1.00  0.00     0.007 C 
HETATM   11  C15 UNL     1       0.220  52.896 -10.077  1.00  0.00     0.007 C 
HETATM   12  C16 UNL     1      -0.683  51.982 -10.967  1.00  0.00    -0.018 C 
HETATM   13  C17 UNL     1      -1.047  52.592 -12.341  1.00  0.00     0.020 C 
HETATM   14  C18 UNL     1      -0.176  50.582 -11.266  1.00  0.00    -0.020 C 
HETATM   15  C19 UNL     1      -1.158  49.667 -11.161  1.00  0.00    -0.018 C 
HETATM   16  C20 UNL     1      -2.461  50.256 -10.641  1.00  0.00    -0.001 C 
HETATM   17  C21 UNL     1      -3.022  49.374  -9.511  1.00  0.00     0.022 C 
HETATM   18  C23 UNL     1      -1.876  51.565 -10.062  1.00  0.00     0.012 C 
HETATM   19  C24 UNL     1      -2.758  52.742  -9.684  1.00  0.00     0.007 C 
HETATM   20  C25 UNL     1      -1.917  53.713  -8.826  1.00  0.00     0.011 C 
HETATM   21  C26 UNL     1      -0.533  54.146  -9.442  1.00  0.00    -0.021 C 
HETATM   22  C27 UNL     1      -0.882  55.214 -10.522  1.00  0.00     0.017 C 
HETATM   23  C28 UNL     1       2.822  55.771  -7.935  1.00  0.00     0.028 C 
ENDROOT
BRANCH   7  24
HETATM   24  C11 UNL     1       0.561  53.852  -7.113  1.00  0.00     0.149 C 
HETATM   25  O1  UNL     1       1.403  52.979  -6.959  1.00  0.00    -0.649 OA
BRANCH  24  26
HETATM   26  O2  UNL     1      -0.341  54.044  -6.138  1.00  0.00    -0.776 OA
HETATM   27  H14 UNL     1      -0.101  53.377  -5.461  1.00  0.00     0.167 HD
ENDBRANCH  24  26
ENDBRANCH   7  24
BRANCH   1  28
HETATM   28  C2  UNL     1       5.337  55.578  -8.640  1.00  0.00    -0.088 C 
HETATM   29  C1  UNL     1       5.654  54.923  -9.771  1.00  0.00     0.014 C 
HETATM   30  C3  UNL     1       6.228  55.484  -7.430  1.00  0.00     0.043 C 
ENDBRANCH   1  28
BRANCH  16  31
HETATM   31  C22 UNL     1      -3.523  50.457 -11.742  1.00  0.00     0.177 C 
BRANCH  31  32
HETATM   32  O3  UNL     1      -4.454  49.377 -11.802  1.00  0.00    -0.400 OA
HETATM   33  H31 UNL     1      -5.042  49.449 -11.032  1.00  0.00     0.209 HD
ENDBRANCH  31  32
ENDBRANCH  16  31
TORSDOF 5
ENDMDL
