MODEL 1
REMARK minimizedAffinity -8.37108707
REMARK  11 active torsions:
REMARK  status: ('A' for Active; 'I' for Inactive)
REMARK    1  A    between atoms: C2_2  and  O1_3 
REMARK    2  A    between atoms: C2_2  and  C3_4 
REMARK    3  A    between atoms: C4_5  and  C5_6 
REMARK    4  A    between atoms: C5_6  and  O2_7 
REMARK    5  A    between atoms: C9_11  and  O3_12 
REMARK    6  A    between atoms: O3_12  and  C10_13 
REMARK    7  A    between atoms: C11_15  and  C12_16 
REMARK    8  A    between atoms: C12_16  and  O5_17 
REMARK    9  A    between atoms: C13_18  and  O6_19 
REMARK   10  A    between atoms: C14_20  and  O7_21 
REMARK   11  A    between atoms: C15_22  and  O8_23 
ROOT
HETATM    1  C5  UNL     1      -7.545   5.614  14.027  1.00  0.00     0.086 C 
HETATM    2  C6  UNL     1      -6.965   4.679  12.900  1.00  0.00     0.023 C 
HETATM    3  C7  UNL     1      -7.743   3.365  12.720  1.00  0.00     0.013 C 
HETATM    4  C8  UNL     1      -5.489   4.350  13.157  1.00  0.00     0.039 C 
HETATM    5  C9  UNL     1      -4.609   5.598  13.076  1.00  0.00     0.126 C 
HETATM    6  C16 UNL     1      -5.377   6.883  13.424  1.00  0.00     0.044 C 
HETATM    7  C17 UNL     1      -6.471   6.702  14.509  1.00  0.00    -0.010 C 
HETATM    8  C18 UNL     1      -5.802   6.311  15.853  1.00  0.00     0.018 C 
HETATM    9  C19 UNL     1      -7.088   8.104  14.757  1.00  0.00     0.018 C 
ENDROOT
BRANCH   5  10
HETATM   10  O3  UNL     1      -3.477   5.506  13.950  1.00  0.00    -0.353 OA
BRANCH  10  11
HETATM   11  C10 UNL     1      -2.618   6.650  13.924  1.00  0.00     0.292 C 
HETATM   12  O4  UNL     1      -1.883   6.788  12.709  1.00  0.00    -0.348 OA
HETATM   13  C11 UNL     1      -0.569   6.196  12.671  1.00  0.00     0.179 C 
HETATM   14  C13 UNL     1       0.334   6.727  13.810  1.00  0.00     0.180 C 
HETATM   15  C14 UNL     1      -0.470   7.401  14.926  1.00  0.00     0.183 C 
HETATM   16  C15 UNL     1      -1.731   6.591  15.183  1.00  0.00     0.204 C 
BRANCH  13  17
HETATM   17  C12 UNL     1      -0.625   4.662  12.551  1.00  0.00     0.198 C 
BRANCH  17  18
HETATM   18  O5  UNL     1      -0.372   4.274  11.198  1.00  0.00    -0.398 OA
HETATM   19  H20 UNL     1      -0.692   3.361  11.100  1.00  0.00     0.209 HD
ENDBRANCH  17  18
ENDBRANCH  13  17
BRANCH  14  20
HETATM   20  O6  UNL     1       1.136   5.686  14.385  1.00  0.00    -0.390 OA
HETATM   21  H22 UNL     1       1.442   6.056  15.243  1.00  0.00     0.210 HD
ENDBRANCH  14  20
BRANCH  15  22
HETATM   22  O7  UNL     1       0.332   7.461  16.119  1.00  0.00    -0.390 OA
HETATM   23  H24 UNL     1      -0.305   7.659  16.836  1.00  0.00     0.210 HD
ENDBRANCH  15  22
BRANCH  16  24
HETATM   24  O8  UNL     1      -2.415   7.122  16.334  1.00  0.00    -0.388 OA
HETATM   25  H26 UNL     1      -3.205   6.561  16.452  1.00  0.00     0.210 HD
ENDBRANCH  16  24
ENDBRANCH  10  11
ENDBRANCH   5  10
BRANCH   1  26
HETATM   26  C4  UNL     1      -8.888   6.237  13.655  1.00  0.00     0.010 C 
HETATM   27  C3  UNL     1      -9.821   6.794  14.450  1.00  0.00     0.003 C 
BRANCH  27  28
HETATM   28  C2  UNL     1     -11.129   7.401  14.008  1.00  0.00     0.136 C 
HETATM   29  C1  UNL     1     -12.303   6.478  14.312  1.00  0.00     0.043 C 
BRANCH  28  30
HETATM   30  O1  UNL     1     -11.118   7.687  12.616  1.00  0.00    -0.392 OA
HETATM   31  H5  UNL     1     -11.060   6.836  12.149  1.00  0.00     0.210 HD
ENDBRANCH  28  30
ENDBRANCH  27  28
ENDBRANCH   1  26
BRANCH   1  32
HETATM   32  O2  UNL     1      -7.856   4.787  15.162  1.00  0.00    -0.385 OA
HETATM   33  H8  UNL     1      -8.651   4.268  14.945  1.00  0.00     0.211 HD
ENDBRANCH   1  32
TORSDOF 11
ENDMDL
