MODEL 1
REMARK minimizedAffinity -7.61865425
REMARK  5 active torsions:
REMARK  status: ('A' for Active; 'I' for Inactive)
REMARK    1  A    between atoms: C2_2  and  C4_4 
REMARK    2  A    between atoms: C7_7  and  C8_8 
REMARK    3  A    between atoms: C8_8  and  O2_10 
REMARK    4  A    between atoms: C11_13  and  C12_14 
REMARK    5  A    between atoms: C12_14  and  O4_16 
ROOT
HETATM    1  C4  UNL     1       0.360   9.472  15.722  1.00  0.00     0.019 C 
HETATM    2  C5  UNL     1      -0.270   8.108  16.045  1.00  0.00     0.011 C 
HETATM    3  C6  UNL     1      -0.954   7.742  14.739  1.00  0.00     0.021 C 
HETATM    4  C7  UNL     1       0.104   8.079  13.664  1.00  0.00     0.050 C 
HETATM    5  C9  UNL     1       1.039   6.860  13.514  1.00  0.00     0.022 C 
HETATM    6  C10 UNL     1       2.407   7.173  12.910  1.00  0.00     0.023 C 
HETATM    7  C11 UNL     1       3.194   8.313  13.636  1.00  0.00     0.057 C 
HETATM    8  C13 UNL     1       2.252   9.563  13.671  1.00  0.00     0.011 C 
HETATM    9  C14 UNL     1       2.945  10.855  14.114  1.00  0.00     0.007 C 
HETATM   10  C15 UNL     1       4.224  11.150  13.327  1.00  0.00     0.006 C 
HETATM   11  C16 UNL     1       5.228   9.982  13.395  1.00  0.00     0.003 C 
HETATM   12  C17 UNL     1       6.702  10.362  12.939  1.00  0.00    -0.035 C 
HETATM   13  C18 UNL     1       6.743  11.017  11.529  1.00  0.00     0.016 C 
HETATM   14  C19 UNL     1       7.243  11.458  13.919  1.00  0.00     0.017 C 
HETATM   15  C20 UNL     1       8.758  11.501  13.989  1.00  0.00     0.080 C 
HETATM   16  C21 UNL     1       9.271  10.223  14.593  1.00  0.00     0.135 C 
HETATM   17  O5  UNL     1      10.247  10.253  15.348  1.00  0.00    -0.297 OA
HETATM   18  C22 UNL     1       8.557   8.909  14.225  1.00  0.00     0.017 C 
HETATM   19  C23 UNL     1       9.682   7.878  13.951  1.00  0.00     0.023 C 
HETATM   20  C24 UNL     1       7.793   8.444  15.470  1.00  0.00     0.023 C 
HETATM   21  C25 UNL     1       7.678   9.117  12.930  1.00  0.00     0.009 C 
HETATM   22  C26 UNL     1       6.992   7.840  12.394  1.00  0.00     0.007 C 
HETATM   23  C27 UNL     1       5.622   7.521  12.990  1.00  0.00     0.011 C 
HETATM   24  C28 UNL     1       4.582   8.662  12.829  1.00  0.00    -0.022 C 
HETATM   25  C29 UNL     1       4.275   8.788  11.306  1.00  0.00     0.017 C 
HETATM   26  C30 UNL     1       0.800   9.374  14.215  1.00  0.00     0.018 C 
ENDROOT
BRANCH   4  27
HETATM   27  C8  UNL     1      -0.529   8.363  12.302  1.00  0.00     0.149 C 
HETATM   28  O1  UNL     1      -0.531   7.607  11.341  1.00  0.00    -0.649 OA
BRANCH  27  29
HETATM   29  O2  UNL     1      -1.157   9.549  12.202  1.00  0.00    -0.776 OA
HETATM   30  H11 UNL     1      -1.561   9.523  11.312  1.00  0.00     0.167 HD
ENDBRANCH  27  29
ENDBRANCH   4  27
BRANCH   1  31
HETATM   31  C2  UNL     1       1.208  10.074  16.821  1.00  0.00    -0.088 C 
HETATM   32  C1  UNL     1       0.724  10.546  17.983  1.00  0.00     0.014 C 
HETATM   33  C3  UNL     1       2.662  10.304  16.482  1.00  0.00     0.043 C 
ENDBRANCH   1  31
BRANCH   7  34
HETATM   34  C12 UNL     1       3.520   7.785  15.050  1.00  0.00     0.149 C 
HETATM   35  O3  UNL     1       4.297   8.279  15.853  1.00  0.00    -0.649 OA
BRANCH  34  36
HETATM   36  O4  UNL     1       2.819   6.710  15.434  1.00  0.00    -0.776 OA
HETATM   37  H16 UNL     1       3.158   6.516  16.333  1.00  0.00     0.167 HD
ENDBRANCH  34  36
ENDBRANCH   7  34
TORSDOF 5
ENDMDL
