MODEL 1
REMARK minimizedAffinity -7.31493902
REMARK CNNscore 0.798017502
REMARK CNNaffinity 7.42496538
REMARK  10 active torsions:
REMARK  status: ('A' for Active; 'I' for Inactive)
REMARK    1  A    between atoms: C2_2  and  O2_4 
REMARK    2  A    between atoms: O2_4  and  C3_5 
REMARK    3  A    between atoms: C10_12  and  O3_13 
REMARK    4  A    between atoms: O3_13  and  C11_14 
REMARK    5  A    between atoms: C13_17  and  O5_18 
REMARK    6  A    between atoms: C14_19  and  O6_20 
REMARK    7  A    between atoms: C15_21  and  O7_22 
REMARK    8  A    between atoms: C27_35  and  O9_36 
REMARK    9  A    between atoms: C27_35  and  C28_37 
REMARK   10  A    between atoms: C28_37  and  C29_39 
ROOT
HETATM    1  C3  UNL     1       5.029  53.566  -7.242  1.00  0.00     0.142 C 
HETATM    2  C4  UNL     1       4.049  53.121  -8.334  1.00  0.00     0.044 C 
HETATM    3  C5  UNL     1       2.690  53.777  -8.145  1.00  0.00    -0.025 A 
HETATM    4  C6  UNL     1       1.651  52.822  -7.575  1.00  0.00     0.021 A 
HETATM    5  C7  UNL     1       1.470  53.345  -8.981  1.00  0.00    -0.027 A 
HETATM    6  C8  UNL     1       1.711  52.402 -10.146  1.00  0.00     0.013 C 
HETATM    7  C9  UNL     1       0.427  51.711 -10.578  1.00  0.00     0.034 C 
HETATM    8  C10 UNL     1      -0.670  52.727 -10.898  1.00  0.00     0.133 C 
HETATM    9  C16 UNL     1      -0.983  53.664  -9.686  1.00  0.00    -0.017 C 
HETATM   10  C17 UNL     1      -1.645  52.885  -8.528  1.00  0.00     0.018 C 
HETATM   11  C18 UNL     1      -2.010  54.722 -10.157  1.00  0.00     0.018 C 
HETATM   12  C19 UNL     1       0.356  54.365  -9.254  1.00  0.00     0.005 C 
HETATM   13  C20 UNL     1       0.208  55.361  -8.094  1.00  0.00     0.007 C 
HETATM   14  C21 UNL     1       1.522  56.091  -7.859  1.00  0.00     0.007 C 
HETATM   15  C22 UNL     1       2.758  55.202  -7.567  1.00  0.00     0.004 C 
HETATM   16  C23 UNL     1       4.122  55.927  -7.943  1.00  0.00    -0.027 C 
HETATM   17  C24 UNL     1       4.171  56.263  -9.457  1.00  0.00     0.016 C 
HETATM   18  C25 UNL     1       4.216  57.271  -7.140  1.00  0.00     0.042 C 
HETATM   19  C26 UNL     1       5.602  57.264  -6.531  1.00  0.00     0.131 C 
HETATM   20  O8  UNL     1       5.752  58.129  -5.424  1.00  0.00    -0.343 OA
HETATM   21  C27 UNL     1       7.117  58.189  -4.993  1.00  0.00     0.225 C 
HETATM   22  C32 UNL     1       7.912  56.887  -5.296  1.00  0.00     0.081 C 
HETATM   23  C33 UNL     1       7.016  55.638  -5.215  1.00  0.00    -0.006 C 
HETATM   24  C34 UNL     1       7.824  54.354  -5.307  1.00  0.00     0.010 C 
HETATM   25  C35 UNL     1       5.762  55.796  -6.109  1.00  0.00     0.030 C 
HETATM   26  C36 UNL     1       5.421  55.064  -7.453  1.00  0.00    -0.003 C 
HETATM   27  C37 UNL     1       6.604  55.151  -8.456  1.00  0.00     0.019 C 
ENDROOT
BRANCH   8  28
HETATM   28  O3  UNL     1      -1.846  52.001 -11.283  1.00  0.00    -0.353 OA
BRANCH  28  29
HETATM   29  C11 UNL     1      -2.138  52.111 -12.686  1.00  0.00     0.291 C 
HETATM   30  O4  UNL     1      -0.945  52.207 -13.475  1.00  0.00    -0.356 OA
HETATM   31  C12 UNL     1      -0.440  50.941 -13.880  1.00  0.00     0.205 C 
HETATM   32  C13 UNL     1      -1.408  50.228 -14.838  1.00  0.00     0.173 C 
HETATM   33  C14 UNL     1      -2.882  50.611 -14.560  1.00  0.00     0.182 C 
HETATM   34  C15 UNL     1      -3.039  50.904 -13.068  1.00  0.00     0.204 C 
BRANCH  32  35
HETATM   35  O5  UNL     1      -1.228  48.814 -14.696  1.00  0.00    -0.391 OA
HETATM   36  H18 UNL     1      -1.622  48.571 -13.833  1.00  0.00     0.210 HD
ENDBRANCH  32  35
BRANCH  33  37
HETATM   37  O6  UNL     1      -3.329  51.743 -15.313  1.00  0.00    -0.390 OA
HETATM   38  H20 UNL     1      -2.638  51.992 -15.954  1.00  0.00     0.210 HD
ENDBRANCH  33  37
BRANCH  34  39
HETATM   39  O7  UNL     1      -2.662  49.729 -12.316  1.00  0.00    -0.388 OA
HETATM   40  H22 UNL     1      -2.384  50.079 -11.444  1.00  0.00     0.210 HD
ENDBRANCH  34  39
ENDBRANCH  28  29
ENDBRANCH   8  28
BRANCH   1  41
HETATM   41  O2  UNL     1       6.198  52.722  -7.308  1.00  0.00    -0.315 OA
BRANCH  41  42
HETATM   42  C2  UNL     1       6.285  51.888  -8.381  1.00  0.00     0.255 C 
HETATM   43  C1  UNL     1       7.337  50.848  -8.129  1.00  0.00     0.126 C 
HETATM   44  O1  UNL     1       5.609  51.957  -9.398  1.00  0.00    -0.266 OA
ENDBRANCH  41  42
ENDBRANCH   1  41
BRANCH  21  45
HETATM   45  O9  UNL     1       7.744  59.224  -5.739  1.00  0.00    -0.359 OA
HETATM   46  H41 UNL     1       7.085  59.938  -5.771  1.00  0.00     0.213 HD
ENDBRANCH  21  45
BRANCH  21  47
HETATM   47  C28 UNL     1       7.137  58.492  -3.455  1.00  0.00     0.192 C 
HETATM   48  O10 UNL     1       8.037  58.074  -2.718  1.00  0.00    -0.292 OA
BRANCH  47  49
HETATM   49  C29 UNL     1       5.974  59.314  -2.882  1.00  0.00     0.053 C 
HETATM   50  C30 UNL     1       5.817  60.637  -3.622  1.00  0.00     0.017 C 
HETATM   51  C31 UNL     1       4.665  58.524  -2.943  1.00  0.00     0.017 C 
ENDBRANCH  47  49
ENDBRANCH  21  47
TORSDOF 10
ENDMDL
