MODEL 1
REMARK minimizedAffinity -7.3298974
REMARK CNNscore 0.687220216
REMARK CNNaffinity 6.7485733
REMARK  6 active torsions:
REMARK  status: ('A' for Active; 'I' for Inactive)
REMARK    1  A    between atoms: C2_2  and  C30_33 
REMARK    2  A    between atoms: C3_3  and  C4_4 
REMARK    3  A    between atoms: C4_4  and  C5_5 
REMARK    4  A    between atoms: C5_5  and  C6_6 
REMARK    5  A    between atoms: C6_6  and  C8_8 
REMARK    6  A    between atoms: C30_33  and  O5_35 
ROOT
HETATM    1  C8  UNL     1       0.734  12.441  18.388  1.00  0.00    -0.001 C 
HETATM    2  C9  UNL     1      -0.422  13.472  18.500  1.00  0.00     0.007 C 
HETATM    3  C10 UNL     1      -1.657  12.831  17.840  1.00  0.00     0.015 C 
HETATM    4  C11 UNL     1      -1.315  11.333  17.712  1.00  0.00    -0.004 C 
HETATM    5  C12 UNL     1      -1.622  10.677  19.094  1.00  0.00     0.021 C 
HETATM    6  C13 UNL     1      -2.028  10.454  16.696  1.00  0.00     0.007 C 
HETATM    7  C14 UNL     1      -1.462   9.338  16.170  1.00  0.00     0.007 C 
HETATM    8  C15 UNL     1      -0.021   9.031  16.560  1.00  0.00     0.157 C 
HETATM    9  O1  UNL     1       0.511   7.978  16.212  1.00  0.00    -0.293 OA
HETATM   10  C16 UNL     1       0.792  10.021  17.388  1.00  0.00     0.094 C 
HETATM   11  C17 UNL     1       0.208  11.430  17.325  1.00  0.00    -0.022 C 
HETATM   12  C18 UNL     1       0.439  11.987  15.889  1.00  0.00     0.017 C 
HETATM   13  C19 UNL     1      -2.170   8.367  15.189  1.00  0.00    -0.007 C 
HETATM   14  C20 UNL     1      -1.528   8.604  13.800  1.00  0.00     0.021 C 
HETATM   15  C21 UNL     1      -1.966   6.871  15.594  1.00  0.00     0.022 C 
HETATM   16  C22 UNL     1      -3.094   5.911  15.218  1.00  0.00     0.080 C 
HETATM   17  C23 UNL     1      -3.883   6.401  14.030  1.00  0.00     0.135 C 
HETATM   18  O2  UNL     1      -4.030   5.698  13.032  1.00  0.00    -0.297 OA
HETATM   19  C24 UNL     1      -4.549   7.773  14.178  1.00  0.00     0.018 C 
HETATM   20  C25 UNL     1      -4.720   8.421  12.789  1.00  0.00     0.023 C 
HETATM   21  C26 UNL     1      -5.963   7.517  14.744  1.00  0.00     0.023 C 
HETATM   22  C27 UNL     1      -3.719   8.634  15.190  1.00  0.00     0.021 C 
HETATM   23  C28 UNL     1      -4.021  10.129  15.103  1.00  0.00     0.090 C 
HETATM   24  C29 UNL     1      -3.420  10.825  16.295  1.00  0.00     0.157 C 
HETATM   25  O3  UNL     1      -4.049  11.690  16.895  1.00  0.00    -0.293 OA
ENDROOT
BRANCH   1  26
HETATM   26  C6  UNL     1       2.151  13.087  18.332  1.00  0.00    -0.014 C 
HETATM   27  C7  UNL     1       2.876  13.055  16.980  1.00  0.00     0.010 C 
BRANCH  26  28
HETATM   28  C5  UNL     1       3.068  12.541  19.452  1.00  0.00     0.008 C 
BRANCH  28  29
HETATM   29  C4  UNL     1       2.437  12.506  20.854  1.00  0.00     0.028 C 
BRANCH  29  30
HETATM   30  C3  UNL     1       2.177  11.104  21.334  1.00  0.00    -0.013 C 
HETATM   31  C2  UNL     1       2.887  10.386  22.229  1.00  0.00     0.008 C 
HETATM   32  C1  UNL     1       4.121  10.843  22.951  1.00  0.00     0.055 C 
BRANCH  31  33
HETATM   33  C30 UNL     1       2.471   9.002  22.590  1.00  0.00     0.171 C 
HETATM   34  O4  UNL     1       2.002   8.185  21.817  1.00  0.00    -0.646 OA
BRANCH  33  35
HETATM   35  O5  UNL     1       2.671   8.689  23.881  1.00  0.00    -0.773 OA
HETATM   36  H42 UNL     1       2.357   7.763  23.942  1.00  0.00     0.167 HD
ENDBRANCH  33  35
ENDBRANCH  31  33
ENDBRANCH  29  30
ENDBRANCH  28  29
ENDBRANCH  26  28
ENDBRANCH   1  26
TORSDOF 6
ENDMDL
