MODEL 1
REMARK minimizedAffinity -7.09486628
REMARK CNNscore 0.705547154
REMARK CNNaffinity 6.76426077
REMARK  11 active torsions:
REMARK  status: ('A' for Active; 'I' for Inactive)
REMARK    1  A    between atoms: C4_4  and  C5_5 
REMARK    2  A    between atoms: C5_5  and  O2_7 
REMARK    3  A    between atoms: O2_7  and  C6_8 
REMARK    4  A    between atoms: C6_8  and  C7_9 
REMARK    5  A    between atoms: C17_19  and  O3_21 
REMARK    6  A    between atoms: C19_22  and  C20_23 
REMARK    7  A    between atoms: C20_23  and  C21_24 
REMARK    8  A    between atoms: C21_24  and  C22_25 
REMARK    9  A    between atoms: C22_25  and  C24_27 
REMARK   10  A    between atoms: C24_27  and  C25_28 
REMARK   11  A    between atoms: C25_28  and  O4_29 
ROOT
HETATM    1  C7  UNL     1      -4.248  49.701 -24.500  1.00  0.00    -0.018 C 
HETATM    2  C8  UNL     1      -3.509  49.135 -25.734  1.00  0.00     0.018 C 
HETATM    3  C9  UNL     1      -4.375  51.232 -24.697  1.00  0.00     0.012 C 
HETATM    4  C10 UNL     1      -4.565  51.954 -23.378  1.00  0.00     0.002 C 
HETATM    5  C11 UNL     1      -3.318  51.845 -22.506  1.00  0.00     0.010 C 
HETATM    6  C12 UNL     1      -2.610  50.445 -22.490  1.00  0.00    -0.033 C 
HETATM    7  C13 UNL     1      -1.323  50.552 -23.352  1.00  0.00     0.016 C 
HETATM    8  C14 UNL     1      -3.565  49.361 -23.108  1.00  0.00     0.004 C 
HETATM    9  C15 UNL     1      -2.933  47.952 -23.078  1.00  0.00     0.009 C 
HETATM   10  C16 UNL     1      -2.113  47.648 -21.823  1.00  0.00     0.038 C 
HETATM   11  C17 UNL     1      -2.475  48.531 -20.629  1.00  0.00     0.059 C 
HETATM   12  C18 UNL     1      -1.751  48.011 -19.376  1.00  0.00     0.046 C 
HETATM   13  C19 UNL     1      -2.254  50.062 -20.952  1.00  0.00     0.028 C 
ENDROOT
BRANCH   1  14
HETATM   14  C6  UNL     1      -5.676  49.058 -24.487  1.00  0.00     0.188 C 
BRANCH  14  15
HETATM   15  O2  UNL     1      -5.720  47.892 -25.326  1.00  0.00    -0.317 OA
BRANCH  15  16
HETATM   16  C5  UNL     1      -6.916  47.695 -25.939  1.00  0.00     0.283 C 
HETATM   17  O1  UNL     1      -8.007  47.681 -25.400  1.00  0.00    -0.260 OA
BRANCH  16  18
HETATM   18  C4  UNL     1      -6.643  47.526 -27.389  1.00  0.00     0.084 C 
HETATM   19  C2  UNL     1      -7.109  46.547 -28.187  1.00  0.00    -0.082 C 
HETATM   20  C1  UNL     1      -7.959  45.383 -27.755  1.00  0.00     0.043 C 
HETATM   21  C3  UNL     1      -6.788  46.557 -29.660  1.00  0.00     0.043 C 
ENDBRANCH  16  18
ENDBRANCH  15  16
ENDBRANCH  14  15
ENDBRANCH   1  14
BRANCH  13  22
HETATM   22  C20 UNL     1      -0.871  50.581 -20.445  1.00  0.00     0.009 C 
BRANCH  22  23
HETATM   23  C21 UNL     1      -0.830  51.971 -19.785  1.00  0.00     0.005 C 
BRANCH  23  24
HETATM   24  C22 UNL     1       0.566  52.610 -19.573  1.00  0.00    -0.017 C 
HETATM   25  C23 UNL     1       0.950  52.661 -18.091  1.00  0.00     0.010 C 
BRANCH  24  26
HETATM   26  C24 UNL     1       0.691  53.988 -20.249  1.00  0.00     0.030 C 
BRANCH  26  27
HETATM   27  C25 UNL     1       1.934  54.162 -21.121  1.00  0.00     0.164 C 
BRANCH  27  28
HETATM   28  O4  UNL     1       1.678  55.015 -22.227  1.00  0.00    -0.401 OA
HETATM   29  H44 UNL     1       1.307  55.845 -21.882  1.00  0.00     0.209 HD
ENDBRANCH  27  28
ENDBRANCH  26  27
ENDBRANCH  24  26
ENDBRANCH  23  24
ENDBRANCH  22  23
ENDBRANCH  13  22
BRANCH  11  30
HETATM   30  O3  UNL     1      -3.877  48.354 -20.348  1.00  0.00    -0.390 OA
HETATM   31  H30 UNL     1      -4.037  47.411 -20.177  1.00  0.00     0.210 HD
ENDBRANCH  11  30
TORSDOF 11
ENDMDL
