MODEL 1
REMARK minimizedAffinity -8.74105549
REMARK CNNscore 0.650208712
REMARK CNNaffinity 7.1813302
REMARK  6 active torsions:
REMARK  status: ('A' for Active; 'I' for Inactive)
REMARK    1  A    between atoms: C2_2  and  C3_3 
REMARK    2  A    between atoms: C2_2  and  C27_30 
REMARK    3  A    between atoms: C3_3  and  C4_4 
REMARK    4  A    between atoms: C4_4  and  C5_5 
REMARK    5  A    between atoms: C5_5  and  C7_7 
REMARK    6  A    between atoms: C26_28  and  O3_29 
ROOT
HETATM    1  C7  UNL     1       0.628   5.816  13.279  1.00  0.00    -0.002 C 
HETATM    2  C8  UNL     1       1.002   6.920  14.298  1.00  0.00     0.006 C 
HETATM    3  C9  UNL     1      -0.314   7.329  14.991  1.00  0.00     0.010 C 
HETATM    4  C10 UNL     1      -1.353   6.330  14.471  1.00  0.00     0.027 C 
HETATM    5  C11 UNL     1      -2.835   6.601  14.567  1.00  0.00    -0.036 C 
HETATM    6  C12 UNL     1      -3.711   5.995  13.726  1.00  0.00     0.002 C 
HETATM    7  C13 UNL     1      -3.164   5.094  12.629  1.00  0.00     0.157 C 
HETATM    8  O1  UNL     1      -3.920   4.528  11.840  1.00  0.00    -0.293 OA
HETATM    9  C14 UNL     1      -1.664   4.871  12.508  1.00  0.00     0.093 C 
HETATM   10  C15 UNL     1      -0.885   6.080  13.023  1.00  0.00    -0.026 C 
HETATM   11  C16 UNL     1      -1.114   7.285  12.076  1.00  0.00     0.016 C 
HETATM   12  C17 UNL     1      -5.241   6.184  13.825  1.00  0.00    -0.008 C 
HETATM   13  C18 UNL     1      -5.635   7.136  12.663  1.00  0.00     0.021 C 
HETATM   14  C19 UNL     1      -6.026   4.840  13.671  1.00  0.00     0.022 C 
HETATM   15  C20 UNL     1      -7.344   4.742  14.439  1.00  0.00     0.080 C 
HETATM   16  C21 UNL     1      -7.988   6.089  14.640  1.00  0.00     0.131 C 
HETATM   17  O2  UNL     1      -9.167   6.291  14.351  1.00  0.00    -0.298 OA
HETATM   18  C22 UNL     1      -7.136   7.167  15.294  1.00  0.00     0.056 C 
HETATM   19  C23 UNL     1      -7.631   7.366  16.727  1.00  0.00     0.018 C 
HETATM   20  C24 UNL     1      -5.638   6.782  15.224  1.00  0.00     0.012 C 
HETATM   21  C25 UNL     1      -4.728   7.957  15.606  1.00  0.00     0.042 C 
HETATM   22  C26 UNL     1      -3.271   7.507  15.686  1.00  0.00     0.148 C 
ENDROOT
BRANCH   1  23
HETATM   23  C5  UNL     1       1.525   5.652  12.021  1.00  0.00    -0.014 C 
HETATM   24  C6  UNL     1       0.852   5.020  10.804  1.00  0.00     0.010 C 
BRANCH  23  25
HETATM   25  C4  UNL     1       2.265   6.967  11.661  1.00  0.00     0.009 C 
BRANCH  25  26
HETATM   26  C3  UNL     1       1.761   7.782  10.460  1.00  0.00     0.034 C 
BRANCH  26  27
HETATM   27  C2  UNL     1       2.538   7.669   9.162  1.00  0.00    -0.086 C 
HETATM   28  C1  UNL     1       3.671   8.377   8.994  1.00  0.00     0.014 C 
BRANCH  27  29
HETATM   29  C27 UNL     1       2.109   6.681   8.077  1.00  0.00     0.005 C 
HETATM   30  C28 UNL     1       1.890   7.319   6.703  1.00  0.00     0.014 C 
HETATM   31  C29 UNL     1       3.052   5.480   7.973  1.00  0.00     0.014 C 
ENDBRANCH  27  29
ENDBRANCH  26  27
ENDBRANCH  25  26
ENDBRANCH  23  25
ENDBRANCH   1  23
BRANCH  22  32
HETATM   32  O3  UNL     1      -3.065   6.783  16.895  1.00  0.00    -0.391 OA
HETATM   33  H37 UNL     1      -3.149   7.414  17.631  1.00  0.00     0.210 HD
ENDBRANCH  22  32
TORSDOF 6
ENDMDL
