MODEL 1
REMARK minimizedAffinity -9.44551754
REMARK  5 active torsions:
REMARK  status: ('A' for Active; 'I' for Inactive)
REMARK    1  A    between atoms: C2_2  and  C4_4 
REMARK    2  A    between atoms: C7_7  and  C8_8 
REMARK    3  A    between atoms: C8_8  and  O2_10 
REMARK    4  A    between atoms: C11_13  and  C12_14 
REMARK    5  A    between atoms: C12_14  and  O4_16 
ROOT
HETATM    1  C4  UNL     1      -6.106  47.957 -24.814  1.00  0.00     0.019 C 
HETATM    2  C5  UNL     1      -7.539  48.495 -24.787  1.00  0.00     0.011 C 
HETATM    3  C6  UNL     1      -8.122  47.823 -23.552  1.00  0.00     0.021 C 
HETATM    4  C7  UNL     1      -7.009  47.926 -22.481  1.00  0.00     0.050 C 
HETATM    5  C9  UNL     1      -7.216  49.205 -21.653  1.00  0.00     0.022 C 
HETATM    6  C10 UNL     1      -5.982  49.647 -20.871  1.00  0.00     0.023 C 
HETATM    7  C11 UNL     1      -4.712  49.847 -21.733  1.00  0.00     0.057 C 
HETATM    8  C13 UNL     1      -4.461  48.595 -22.642  1.00  0.00     0.011 C 
HETATM    9  C14 UNL     1      -3.221  48.786 -23.526  1.00  0.00     0.007 C 
HETATM   10  C15 UNL     1      -1.952  49.139 -22.738  1.00  0.00     0.006 C 
HETATM   11  C16 UNL     1      -2.149  50.322 -21.760  1.00  0.00     0.003 C 
HETATM   12  C17 UNL     1      -0.816  50.863 -21.075  1.00  0.00    -0.035 C 
HETATM   13  C18 UNL     1      -0.089  49.760 -20.274  1.00  0.00     0.016 C 
HETATM   14  C19 UNL     1       0.152  51.355 -22.196  1.00  0.00     0.017 C 
HETATM   15  C20 UNL     1       1.360  52.132 -21.691  1.00  0.00     0.080 C 
HETATM   16  C21 UNL     1       0.957  53.282 -20.803  1.00  0.00     0.135 C 
HETATM   17  O5  UNL     1       1.494  54.382 -20.952  1.00  0.00    -0.297 OA
HETATM   18  C22 UNL     1      -0.034  52.996 -19.662  1.00  0.00     0.017 C 
HETATM   19  C23 UNL     1       0.740  52.370 -18.492  1.00  0.00     0.023 C 
HETATM   20  C24 UNL     1      -0.580  54.360 -19.168  1.00  0.00     0.023 C 
HETATM   21  C25 UNL     1      -1.214  52.125 -20.218  1.00  0.00     0.009 C 
HETATM   22  C26 UNL     1      -2.276  51.766 -19.161  1.00  0.00     0.007 C 
HETATM   23  C27 UNL     1      -3.568  51.248 -19.800  1.00  0.00     0.011 C 
HETATM   24  C28 UNL     1      -3.381  50.067 -20.799  1.00  0.00    -0.022 C 
HETATM   25  C29 UNL     1      -3.125  48.816 -19.893  1.00  0.00     0.017 C 
HETATM   26  C30 UNL     1      -5.675  47.870 -23.309  1.00  0.00     0.018 C 
ENDROOT
BRANCH   4  27
HETATM   27  C8  UNL     1      -7.083  46.740 -21.518  1.00  0.00     0.149 C 
HETATM   28  O1  UNL     1      -8.096  46.260 -21.035  1.00  0.00    -0.649 OA
BRANCH  27  29
HETATM   29  O2  UNL     1      -5.889  46.168 -21.269  1.00  0.00    -0.776 OA
HETATM   30  H11 UNL     1      -6.103  45.418 -20.676  1.00  0.00     0.167 HD
ENDBRANCH  27  29
ENDBRANCH   4  27
BRANCH   1  31
HETATM   31  C2  UNL     1      -5.205  48.440 -25.932  1.00  0.00    -0.088 C 
HETATM   32  C1  UNL     1      -4.235  49.339 -25.677  1.00  0.00     0.014 C 
HETATM   33  C3  UNL     1      -5.301  47.832 -27.304  1.00  0.00     0.043 C 
ENDBRANCH   1  31
BRANCH   7  34
HETATM   34  C12 UNL     1      -4.969  51.111 -22.595  1.00  0.00     0.149 C 
HETATM   35  O3  UNL     1      -4.176  51.975 -22.933  1.00  0.00    -0.649 OA
BRANCH  34  36
HETATM   36  O4  UNL     1      -6.247  51.276 -22.962  1.00  0.00    -0.776 OA
HETATM   37  H16 UNL     1      -6.231  52.123 -23.456  1.00  0.00     0.167 HD
ENDBRANCH  34  36
ENDBRANCH   7  34
TORSDOF 5
ENDMDL
