MODEL 1
REMARK minimizedAffinity -8.04796696
REMARK CNNscore 0.494788736
REMARK CNNaffinity 6.9971385
REMARK  17 active torsions:
REMARK  status: ('A' for Active; 'I' for Inactive)
REMARK    1  A    between atoms: C2_2  and  C3_3 
REMARK    2  A    between atoms: C2_2  and  C26_32 
REMARK    3  A    between atoms: C4_4  and  C5_5 
REMARK    4  A    between atoms: C6_6  and  C7_7 
REMARK    5  A    between atoms: C6_6  and  C9_11 
REMARK    6  A    between atoms: C7_7  and  O1_8 
REMARK    7  A    between atoms: O1_8  and  C8_9 
REMARK    8  A    between atoms: C8_9  and  O2_10 
REMARK    9  A    between atoms: C13_15  and  O3_16 
REMARK   10  A    between atoms: C14_17  and  C15_18 
REMARK   11  A    between atoms: C15_18  and  C16_19 
REMARK   12  A    between atoms: C16_19  and  C17_20 
REMARK   13  A    between atoms: C17_20  and  O4_21 
REMARK   14  A    between atoms: C19_23  and  C21_25 
REMARK   15  A    between atoms: C24_29  and  O6_31 
REMARK   16  A    between atoms: C26_32  and  C27_33 
REMARK   17  A    between atoms: C27_33  and  C28_34 
ROOT
HETATM    1  C9  UNL     1      -1.725  49.625 -21.018  1.00  0.00     0.046 C 
HETATM    2  C10 UNL     1      -1.241  50.133 -22.385  1.00  0.00     0.013 C 
HETATM    3  C11 UNL     1      -2.461  50.773 -23.042  1.00  0.00     0.017 C 
HETATM    4  C12 UNL     1      -3.703  49.991 -22.514  1.00  0.00     0.024 C 
HETATM    5  C13 UNL     1      -3.270  49.837 -21.010  1.00  0.00     0.138 C 
HETATM    6  C14 UNL     1      -3.774  48.554 -23.251  1.00  0.00     0.029 C 
HETATM    7  C18 UNL     1      -4.719  48.605 -24.457  1.00  0.00    -0.066 C 
HETATM    8  C19 UNL     1      -4.367  48.425 -25.757  1.00  0.00    -0.021 C 
HETATM    9  C20 UNL     1      -5.330  48.385 -26.920  1.00  0.00     0.052 C 
HETATM   10  C22 UNL     1      -6.155  48.935 -24.055  1.00  0.00     0.038 C 
HETATM   11  C23 UNL     1      -6.238  49.892 -22.859  1.00  0.00     0.042 C 
HETATM   12  C24 UNL     1      -5.031  50.835 -22.779  1.00  0.00     0.065 C 
HETATM   13  C25 UNL     1      -4.984  51.722 -24.045  1.00  0.00     0.047 C 
ENDROOT
BRANCH   1  14
HETATM   14  C6  UNL     1      -1.023  50.095 -19.744  1.00  0.00    -0.050 C 
HETATM   15  C5  UNL     1      -0.305  51.219 -19.521  1.00  0.00     0.005 C 
BRANCH  15  16
HETATM   16  C4  UNL     1      -0.117  52.376 -20.370  1.00  0.00     0.001 C 
HETATM   17  C3  UNL     1       0.795  52.410 -21.356  1.00  0.00     0.006 C 
BRANCH  17  18
HETATM   18  C2  UNL     1       1.089  53.544 -22.236  1.00  0.00    -0.067 C 
HETATM   19  C1  UNL     1       1.689  54.621 -21.699  1.00  0.00     0.019 C 
BRANCH  18  20
HETATM   20  C26 UNL     1       0.688  53.444 -23.702  1.00  0.00     0.041 C 
BRANCH  20  21
HETATM   21  C27 UNL     1       0.562  52.051 -24.356  1.00  0.00     0.032 C 
BRANCH  21  22
HETATM   22  C28 UNL     1       0.304  52.105 -25.841  1.00  0.00    -0.024 C 
HETATM   23  C29 UNL     1       1.159  51.814 -26.840  1.00  0.00    -0.091 C 
HETATM   24  C30 UNL     1       2.592  51.394 -26.665  1.00  0.00     0.042 C 
HETATM   25  C31 UNL     1       0.715  51.900 -28.278  1.00  0.00     0.042 C 
ENDBRANCH  21  22
ENDBRANCH  20  21
ENDBRANCH  18  20
ENDBRANCH  17  18
ENDBRANCH  15  16
BRANCH  14  26
HETATM   26  C7  UNL     1      -1.229  49.111 -18.591  1.00  0.00     0.205 C 
BRANCH  26  27
HETATM   27  O1  UNL     1      -0.798  49.597 -17.322  1.00  0.00    -0.363 OA
BRANCH  27  28
HETATM   28  C8  UNL     1      -1.453  49.009 -16.204  1.00  0.00     0.334 C 
BRANCH  28  29
HETATM   29  O2  UNL     1      -1.500  47.595 -16.254  1.00  0.00    -0.377 OA
HETATM   30  H10 UNL     1      -2.401  47.387 -16.576  1.00  0.00     0.212 HD
ENDBRANCH  28  29
ENDBRANCH  27  28
ENDBRANCH  26  27
ENDBRANCH  14  26
ENDBRANCH   1  14
BRANCH   5  31
HETATM   31  O3  UNL     1      -3.622  50.957 -20.189  1.00  0.00    -0.394 OA
HETATM   32  H17 UNL     1      -3.089  51.721 -20.486  1.00  0.00     0.210 HD
ENDBRANCH   5  31
BRANCH   6  33
HETATM   33  C15 UNL     1      -4.156  47.344 -22.341  1.00  0.00     0.012 C 
BRANCH  33  34
HETATM   34  C16 UNL     1      -5.660  47.034 -22.210  1.00  0.00     0.027 C 
BRANCH  34  35
HETATM   35  C17 UNL     1      -6.154  46.910 -20.773  1.00  0.00     0.164 C 
BRANCH  35  36
HETATM   36  O4  UNL     1      -7.554  46.669 -20.746  1.00  0.00    -0.401 OA
HETATM   37  H25 UNL     1      -7.695  45.761 -21.068  1.00  0.00     0.209 HD
ENDBRANCH  35  36
ENDBRANCH  34  35
ENDBRANCH  33  34
ENDBRANCH   6  33
BRANCH  12  38
HETATM   38  O6  UNL     1      -5.309  51.786 -21.746  1.00  0.00    -0.389 OA
HETATM   39  H37 UNL     1      -5.146  51.362 -20.878  1.00  0.00     0.210 HD
ENDBRANCH  12  38
BRANCH   8  40
HETATM   40  C21 UNL     1      -2.946  48.245 -26.201  1.00  0.00     0.265 C 
HETATM   41  O5  UNL     1      -2.186  49.187 -26.388  1.00  0.00    -0.302 OA
ENDBRANCH   8  40
TORSDOF 17
ENDMDL
