MODEL 1
REMARK minimizedAffinity -6.96571445
REMARK  5 active torsions:
REMARK  status: ('A' for Active; 'I' for Inactive)
REMARK    1  A    between atoms: C4_4  and  C5_5 
REMARK    2  A    between atoms: C5_5  and  N1_6 
REMARK    3  A    between atoms: N1_6  and  C6_7 
REMARK    4  A    between atoms: N1_6  and  C10_14 
REMARK    5  A    between atoms: C6_7  and  C7_8 
ROOT
HETATM    1  N1  UNL     1      -7.788   6.201  14.468  1.00  0.00    -0.273 NA
ENDROOT
BRANCH   1   2
HETATM    2  C5  UNL     1      -7.321   4.876  14.934  1.00  0.00     0.134 C 
BRANCH   2   3
HETATM    3  C4  UNL     1      -6.881   4.003  13.777  1.00  0.00    -0.045 A 
HETATM    4  C3  UNL     1      -7.682   2.939  13.334  1.00  0.00     0.008 A 
HETATM    5  C2  UNL     1      -7.262   2.122  12.284  1.00  0.00     0.001 A 
HETATM    6  C1  UNL     1      -6.033   2.352  11.671  1.00  0.00     0.000 A 
HETATM    7  C17 UNL     1      -5.222   3.397  12.108  1.00  0.00     0.001 A 
HETATM    8  C16 UNL     1      -5.641   4.217  13.158  1.00  0.00     0.008 A 
ENDBRANCH   2   3
ENDBRANCH   1   2
BRANCH   1   9
HETATM    9  C6  UNL     1      -8.680   6.126  13.278  1.00  0.00     0.165 C 
BRANCH   9  10
HETATM   10  C7  UNL     1     -10.066   6.673  13.602  1.00  0.00     0.065 C 
HETATM   11  N2  UNL     1     -10.598   6.564  14.795  1.00  0.00    -0.382 N 
HETATM   12  C8  UNL     1     -11.950   7.176  14.628  1.00  0.00     0.135 C 
ATOM     13  H2  UNL     1     -10.186   6.158  15.636  1.00  0.00     0.160 HD
HETATM   14  C9  UNL     1     -12.188   7.295  13.118  1.00  0.00     0.113 C 
HETATM   15  N3  UNL     1     -10.832   7.280  12.629  1.00  0.00    -0.280 NA
HETATM   16  H12 UNL     1     -10.662   6.886  11.706  1.00  0.00     0.128 HD
ENDBRANCH   9  10
ENDBRANCH   1   9
BRANCH   1  17
HETATM   17  C10 UNL     1      -6.759   7.165  14.469  1.00  0.00     0.011 A 
HETATM   18  C11 UNL     1      -6.017   7.369  13.291  1.00  0.00     0.024 A 
HETATM   19  C12 UNL     1      -4.970   8.294  13.230  1.00  0.00     0.002 A 
HETATM   20  C13 UNL     1      -4.635   9.036  14.357  1.00  0.00     0.000 A 
HETATM   21  C14 UNL     1      -5.344   8.845  15.538  1.00  0.00     0.002 A 
HETATM   22  C15 UNL     1      -6.391   7.917  15.593  1.00  0.00     0.024 A 
ENDBRANCH   1  17
TORSDOF 5
ENDMDL
