MODEL 1
REMARK minimizedAffinity -7.90465403
REMARK  8 active torsions:
REMARK  status: ('A' for Active; 'I' for Inactive)
REMARK    1  A    between atoms: O1_2  and  C2_3 
REMARK    2  A    between atoms: C3_6  and  N2_7 
REMARK    3  A    between atoms: N5_15  and  C7_16 
REMARK    4  A    between atoms: C9_18  and  N6_19 
REMARK    5  A    between atoms: N6_19  and  N7_21 
REMARK    6  A    between atoms: N7_21  and  N8_22 
REMARK    7  A    between atoms: C10_25  and  C11_26 
REMARK    8  A    between atoms: C11_26  and  O2_27 
ROOT
HETATM    1  C2  UNL     1      -0.118  52.313 -20.422  1.00  0.00     0.175 A 
HETATM    2  N1  UNL     1       0.788  53.324 -20.483  1.00  0.00    -0.311 N 
ATOM      3  H1  UNL     1       1.179  53.726 -19.631  1.00  0.00     0.170 HD
HETATM    4  C3  UNL     1       1.157  53.784 -21.688  1.00  0.00     0.158 A 
HETATM    5  N3  UNL     1       0.745  53.338 -22.883  1.00  0.00    -0.317 N 
ATOM      6  H3  UNL     1       1.071  53.716 -23.774  1.00  0.00     0.170 HD
HETATM    7  C4  UNL     1      -0.144  52.337 -22.777  1.00  0.00     0.144 A 
HETATM    8  C5  UNL     1      -0.624  51.772 -21.606  1.00  0.00     0.129 A 
HETATM    9  N4  UNL     1      -1.530  50.771 -21.882  1.00  0.00    -0.346 N 
ATOM     10  H4  UNL     1      -2.039  50.192 -21.215  1.00  0.00     0.167 HD
HETATM   11  C6  UNL     1      -1.594  50.725 -23.196  1.00  0.00     0.188 A 
HETATM   12  N5  UNL     1      -0.781  51.660 -23.783  1.00  0.00    -0.300 N 
ENDROOT
BRANCH  12  13
HETATM   13  C7  UNL     1      -0.663  51.875 -25.207  1.00  0.00     0.233 C 
HETATM   14  C8  UNL     1      -0.067  53.212 -25.615  1.00  0.00     0.084 C 
HETATM   15  C9  UNL     1       0.494  52.897 -26.985  1.00  0.00     0.149 C 
HETATM   16  C10 UNL     1       0.953  51.440 -26.829  1.00  0.00     0.172 C 
HETATM   17  O3  UNL     1       0.161  50.845 -25.782  1.00  0.00    -0.357 OA
BRANCH  15  18
HETATM   18  N6  UNL     1      -0.612  52.990 -27.960  1.00  0.00    -0.245 N 
ATOM     19  H6  UNL     1      -0.762  53.819 -28.535  1.00  0.00     0.197 HD
BRANCH  18  20
HETATM   20  N7  UNL     1      -1.350  51.988 -28.032  1.00  0.00    -0.248 NA
BRANCH  20  21
HETATM   21  N8  UNL     1      -2.022  51.071 -28.100  1.00  0.00    -0.261 N 
ATOM     22  H82 UNL     1      -1.303  51.794 -28.112  1.00  0.00     0.193 HD
ATOM     23  H81 UNL     1      -2.626  50.251 -28.160  1.00  0.00     0.193 HD
ENDBRANCH  20  21
ENDBRANCH  18  20
ENDBRANCH  15  18
BRANCH  16  24
HETATM   24  C11 UNL     1       2.435  51.329 -26.460  1.00  0.00     0.198 C 
BRANCH  24  25
HETATM   25  O2  UNL     1       3.230  52.044 -27.399  1.00  0.00    -0.398 OA
HETATM   26  H14 UNL     1       4.161  51.877 -27.167  1.00  0.00     0.209 HD
ENDBRANCH  24  25
ENDBRANCH  16  24
ENDBRANCH  12  13
BRANCH   4  27
HETATM   27  N2  UNL     1       2.096  54.798 -21.692  1.00  0.00    -0.274 NA
HETATM   28  H4  UNL     1       2.636  54.763 -22.544  1.00  0.00     0.127 HD
HETATM   29  H5  UNL     1       2.607  54.784 -20.821  1.00  0.00     0.127 HD
ENDBRANCH   4  27
BRANCH   1  30
HETATM   30  O1  UNL     1      -0.529  51.819 -19.199  1.00  0.00    -0.339 OA
HETATM   31  C1  UNL     1       0.372  52.122 -18.141  1.00  0.00     0.211 C 
ENDBRANCH   1  30
TORSDOF 8
ENDMDL
