MODEL 1
REMARK minimizedAffinity -7.2739563
REMARK CNNscore 0.147969499
REMARK CNNaffinity 6.6740613
REMARK  9 active torsions:
REMARK  status: ('A' for Active; 'I' for Inactive)
REMARK    1  A    between atoms: C13_13  and  S1_14 
REMARK    2  A    between atoms: C22_26  and  C23_27 
REMARK    3  A    between atoms: C23_27  and  O4_28 
REMARK    4  A    between atoms: C29_34  and  O5_35 
REMARK    5  A    between atoms: C41_48  and  C42_49 
REMARK    6  A    between atoms: C41_48  and  N1_58 
REMARK    7  A    between atoms: C42_49  and  C43_50 
REMARK    8  A    between atoms: C43_50  and  C44_51 
REMARK    9  A    between atoms: C44_51  and  O7_52 
REMARK       I    between atoms: C50_60  and  N2_61 
REMARK       I    between atoms: C50_60  and  N3_62 
ROOT
HETATM    1  C1  UNL     1     -15.693  19.547   6.723  1.00  0.00     0.010 C 
HETATM    2  C2  UNL     1     -15.241  19.172   5.313  1.00  0.00    -0.010 C 
HETATM    3  C3  UNL     1     -16.045  19.994   4.297  1.00  0.00     0.009 C 
HETATM    4  C4  UNL     1     -15.726  19.556   2.869  1.00  0.00     0.039 C 
HETATM    5  C5  UNL     1     -16.096  18.110   2.691  1.00  0.00    -0.049 C 
HETATM    6  C6  UNL     1     -16.270  17.575   1.420  1.00  0.00     0.044 C 
HETATM    7  C7  UNL     1     -16.508  16.207   1.272  1.00  0.00     0.072 C 
HETATM    8  C8  UNL     1     -16.786  15.419   2.390  1.00  0.00     0.037 C 
HETATM    9  C9  UNL     1     -16.583  15.938   3.664  1.00  0.00     0.011 C 
HETATM   10  C10 UNL     1     -16.130  17.259   3.817  1.00  0.00    -0.047 C 
HETATM   11  C11 UNL     1     -15.330  17.635   5.084  1.00  0.00     0.024 C 
HETATM   12  C12 UNL     1     -13.940  16.997   4.801  1.00  0.00     0.033 C 
HETATM   13  C13 UNL     1     -12.721  17.161   5.722  1.00  0.00     0.139 C 
HETATM   14  C14 UNL     1     -11.416  16.885   4.880  1.00  0.00     0.037 C 
HETATM   15  C15 UNL     1     -10.118  17.257   5.577  1.00  0.00    -0.014 C 
HETATM   16  C16 UNL     1      -9.116  16.366   5.734  1.00  0.00    -0.050 C 
HETATM   17  C17 UNL     1      -9.354  14.929   5.380  1.00  0.00     0.042 C 
HETATM   18  C18 UNL     1      -9.892  14.954   3.951  1.00  0.00    -0.001 C 
HETATM   19  C19 UNL     1      -8.981  15.754   2.965  1.00  0.00     0.037 C 
HETATM   20  C20 UNL     1      -7.504  15.971   3.393  1.00  0.00     0.123 C 
HETATM   21  C21 UNL     1      -6.663  16.373   2.158  1.00  0.00     0.039 C 
HETATM   22  C22 UNL     1      -5.125  16.293   2.384  1.00  0.00     0.023 C 
HETATM   23  C24 UNL     1      -4.477  17.655   2.737  1.00  0.00     0.101 C 
HETATM   24  C25 UNL     1      -4.818  18.113   4.080  1.00  0.00    -0.101 C 
HETATM   25  C26 UNL     1      -5.267  18.417   5.154  1.00  0.00    -0.066 C 
HETATM   26  C27 UNL     1      -6.029  18.641   6.339  1.00  0.00     0.029 A 
HETATM   27  C28 UNL     1      -5.579  19.620   7.234  1.00  0.00     0.057 A 
HETATM   28  C29 UNL     1      -6.275  19.859   8.411  1.00  0.00     0.067 A 
HETATM   29  C30 UNL     1      -7.413  19.126   8.722  1.00  0.00     0.037 A 
HETATM   30  C31 UNL     1      -7.865  18.138   7.838  1.00  0.00     0.014 A 
HETATM   31  C32 UNL     1      -7.200  17.893   6.618  1.00  0.00    -0.006 A 
HETATM   32  C33 UNL     1      -7.665  16.757   5.703  1.00  0.00     0.185 C 
HETATM   33  O6  UNL     1      -7.425  17.066   4.313  1.00  0.00    -0.371 OA
HETATM   34  C34 UNL     1     -11.350  15.506   4.085  1.00  0.00     0.031 C 
HETATM   35  C35 UNL     1     -12.103  15.451   2.754  1.00  0.00     0.051 A 
HETATM   36  C36 UNL     1     -12.977  14.381   2.509  1.00  0.00     0.004 A 
HETATM   37  C37 UNL     1     -13.853  14.403   1.416  1.00  0.00     0.008 A 
HETATM   38  C38 UNL     1     -13.887  15.505   0.537  1.00  0.00    -0.003 A 
HETATM   39  C39 UNL     1     -12.920  16.505   0.722  1.00  0.00     0.114 A 
HETATM   40  C40 UNL     1     -12.038  16.476   1.805  1.00  0.00     0.064 A 
HETATM   41  C41 UNL     1     -15.017  15.666  -0.538  1.00  0.00     0.169 C 
HETATM   42  O8  UNL     1     -16.364  15.561   0.069  1.00  0.00    -0.316 OA
HETATM   43 NA1  UNL     1     -11.673  16.193   2.250  1.00  0.00    -0.401 Na
ATOM     44  HA1 UNL     1     -10.801  16.679   2.463  1.00  0.00     0.155 HD
ENDROOT
BRANCH  41  45
HETATM   45  C42 UNL     1     -14.941  14.417  -1.465  1.00  0.00     0.070 C 
BRANCH  45  46
HETATM   46  C43 UNL     1     -13.532  14.067  -1.988  1.00  0.00     0.043 C 
BRANCH  46  47
HETATM   47  C44 UNL     1     -13.232  12.553  -2.048  1.00  0.00     0.058 C 
HETATM   48  C45 UNL     1     -13.907  11.869  -0.833  1.00  0.00     0.038 C 
HETATM   49  C46 UNL     1     -14.252  10.410  -1.121  1.00  0.00     0.003 C 
HETATM   50  C47 UNL     1     -15.248  10.292  -2.277  1.00  0.00     0.000 C 
HETATM   51  C48 UNL     1     -15.083  11.390  -3.330  1.00  0.00     0.003 C 
HETATM   52  C49 UNL     1     -13.650  11.891  -3.378  1.00  0.00     0.038 C 
BRANCH  47  53
HETATM   53  O7  UNL     1     -11.818  12.352  -1.927  1.00  0.00    -0.390 OA
HETATM   54  H46 UNL     1     -11.444  13.119  -1.445  1.00  0.00     0.210 HD
ENDBRANCH  47  53
ENDBRANCH  46  47
ENDBRANCH  45  46
ENDBRANCH  41  45
BRANCH  41  55
HETATM   55  N1  UNL     1     -14.827  16.930  -1.274  1.00  0.00    -0.336 N 
HETATM   56  C50 UNL     1     -13.957  17.291  -2.111  1.00  0.00     0.124 C 
HETATM   57  N2  UNL     1     -14.034  18.536  -2.619  1.00  0.00    -0.279 NA
HETATM   58  N3  UNL     1     -12.893  16.656  -2.658  1.00  0.00    -0.279 NA
HETATM   59  H57 UNL     1     -14.872  19.014  -2.301  1.00  0.00     0.126 HD
HETATM   60  H58 UNL     1     -13.898  18.622  -3.623  1.00  0.00     0.126 HD
HETATM   61  H59 UNL     1     -13.195  15.908  -3.286  1.00  0.00     0.126 HD
HETATM   62  H60 UNL     1     -12.327  17.306  -3.191  1.00  0.00     0.126 HD
ATOM     63  H1  UNL     1     -15.527  17.641  -1.066  1.00  0.00     0.165 HD
ENDBRANCH  41  55
BRANCH  13  64
HETATM   64  S1  UNL     1     -12.857  16.175   7.217  1.00  0.00     0.106 S 
HETATM   65  O1  UNL     1     -11.950  16.793   8.178  1.00  0.00    -0.595 OA
HETATM   66  O2  UNL     1     -12.446  14.837   6.776  1.00  0.00    -0.595 OA
HETATM   67  O3  UNL     1     -14.269  16.247   7.586  1.00  0.00    -0.595 OA
ENDBRANCH  13  64
BRANCH  22  68
HETATM   68  C23 UNL     1      -4.445  15.770   1.102  1.00  0.00     0.169 C 
BRANCH  68  69
HETATM   69  O4  UNL     1      -5.232  14.769   0.464  1.00  0.00    -0.400 OA
HETATM   70  H29 UNL     1      -6.106  15.150   0.259  1.00  0.00     0.209 HD
ENDBRANCH  68  69
ENDBRANCH  22  68
BRANCH  28  71
HETATM   71  O5  UNL     1      -5.793  20.822   9.250  1.00  0.00    -0.361 OA
HETATM   72  H33 UNL     1      -6.379  20.860  10.023  1.00  0.00     0.217 HD
ENDBRANCH  28  71
TORSDOF 9
ENDMDL
