MODEL 1
REMARK minimizedAffinity -7.83402348
REMARK CNNscore 0.716771603
REMARK CNNaffinity 7.06681871
REMARK  5 active torsions:
REMARK  status: ('A' for Active; 'I' for Inactive)
REMARK    1  A    between atoms: C2_2  and  C25_28 
REMARK    2  A    between atoms: C3_3  and  C4_4 
REMARK    3  A    between atoms: C4_4  and  C6_6 
REMARK    4  A    between atoms: C15_15  and  O1_16 
REMARK    5  A    between atoms: C25_28  and  C27_30 
ROOT
HETATM    1  C6  UNL     1      -2.028  52.291  -9.930  1.00  0.00     0.001 C 
HETATM    2  C7  UNL     1      -1.468  50.846  -9.758  1.00  0.00     0.006 C 
HETATM    3  C8  UNL     1       0.052  50.970  -9.575  1.00  0.00     0.009 C 
HETATM    4  C9  UNL     1       0.282  52.471  -9.456  1.00  0.00     0.036 C 
HETATM    5  C10 UNL     1       1.707  53.024  -9.565  1.00  0.00     0.123 C 
HETATM    6  C11 UNL     1       2.527  52.601 -10.760  1.00  0.00     0.014 C 
HETATM    7  C12 UNL     1       3.793  53.038 -10.724  1.00  0.00     0.014 C 
HETATM    8  C13 UNL     1       4.098  53.920  -9.532  1.00  0.00     0.124 C 
HETATM    9  C14 UNL     1       5.577  54.313  -9.452  1.00  0.00     0.078 C 
HETATM   10  C15 UNL     1       5.857  55.225  -8.256  1.00  0.00     0.121 C 
HETATM   11  C16 UNL     1       4.935  56.444  -8.213  1.00  0.00     0.033 C 
HETATM   12  C17 UNL     1       3.459  56.055  -8.299  1.00  0.00     0.015 C 
HETATM   13  C18 UNL     1       3.134  55.159  -9.529  1.00  0.00     0.001 C 
HETATM   14  C19 UNL     1       3.312  56.013 -10.812  1.00  0.00     0.019 C 
HETATM   15  C20 UNL     1       1.666  54.580  -9.381  1.00  0.00     0.039 C 
HETATM   16  C21 UNL     1       0.576  55.267 -10.231  1.00  0.00     0.010 C 
HETATM   17  C22 UNL     1      -0.810  54.612 -10.081  1.00  0.00     0.010 C 
HETATM   18  C23 UNL     1      -0.777  53.102 -10.397  1.00  0.00    -0.033 C 
HETATM   19  C24 UNL     1      -0.517  52.885 -11.904  1.00  0.00     0.016 C 
HETATM   20  O2  UNL     1       3.796  53.150  -8.335  1.00  0.00    -0.223 OA
HETATM   21  O3  UNL     1       2.451  52.507  -8.427  1.00  0.00    -0.224 OA
ENDROOT
BRANCH   1  22
HETATM   22  C4  UNL     1      -3.319  52.310 -10.793  1.00  0.00     0.009 C 
HETATM   23  C5  UNL     1      -4.009  53.674 -10.816  1.00  0.00     0.014 C 
BRANCH  22  24
HETATM   24  C3  UNL     1      -4.317  51.296 -10.258  1.00  0.00    -0.019 C 
HETATM   25  C2  UNL     1      -4.640  50.087 -10.767  1.00  0.00    -0.083 C 
HETATM   26  C1  UNL     1      -4.074  49.515 -12.041  1.00  0.00     0.043 C 
BRANCH  25  27
HETATM   27  C25 UNL     1      -5.658  49.173 -10.070  1.00  0.00     0.013 C 
HETATM   28  C26 UNL     1      -5.278  47.702 -10.296  1.00  0.00     0.015 C 
BRANCH  27  29
HETATM   29  C27 UNL     1      -7.133  49.487 -10.466  1.00  0.00    -0.015 C 
HETATM   30  C28 UNL     1      -7.994  49.793  -9.232  1.00  0.00     0.010 C 
HETATM   31  C29 UNL     1      -7.779  48.334 -11.243  1.00  0.00     0.010 C 
ENDBRANCH  27  29
ENDBRANCH  25  27
ENDBRANCH  22  24
ENDBRANCH   1  22
BRANCH  10  32
HETATM   32  O1  UNL     1       7.213  55.665  -8.302  1.00  0.00    -0.395 OA
HETATM   33  H20 UNL     1       7.335  56.195  -9.109  1.00  0.00     0.210 HD
ENDBRANCH  10  32
TORSDOF 5
ENDMDL
