MODEL 1
REMARK minimizedAffinity -7.25342655
REMARK CNNscore 0.516347468
REMARK CNNaffinity 6.87929773
REMARK  11 active torsions:
REMARK  status: ('A' for Active; 'I' for Inactive)
REMARK    1  A    between atoms: C3_3  and  O1_4 
REMARK    2  A    between atoms: N1_14  and  O2_16 
REMARK    3  A    between atoms: O2_16  and  C13_17 
REMARK    4  A    between atoms: C13_17  and  C14_18 
REMARK       I    between atoms: C14_18  and  N2_20 
REMARK    5  A    between atoms: N2_20  and  C15_21 
REMARK    6  A    between atoms: C15_21  and  C16_22 
REMARK    7  A    between atoms: C15_21  and  C19_27 
REMARK    8  A    between atoms: C16_22  and  O5_24 
REMARK    9  A    between atoms: O5_24  and  C17_25 
REMARK   10  A    between atoms: C19_27  and  O6_28 
REMARK   11  A    between atoms: C19_27  and  C20_29 
ROOT
HETATM    1  C1  UNL     1     -16.448  -0.868  27.540  1.00  0.00     0.015 C 
HETATM    2  C2  UNL     1     -16.926  -1.967  27.638  1.00  0.00    -0.078 C 
HETATM    3  C3  UNL     1     -17.532  -3.317  27.743  1.00  0.00     0.128 C 
HETATM    4  C4  UNL     1     -17.306  -4.072  26.432  1.00  0.00     0.052 C 
HETATM    5  C5  UNL     1     -15.926  -4.713  26.569  1.00  0.00     0.010 C 
HETATM    6  C6  UNL     1     -15.582  -4.732  28.076  1.00  0.00     0.002 C 
HETATM    7  C7  UNL     1     -15.050  -6.083  28.599  1.00  0.00    -0.004 C 
HETATM    8  C8  UNL     1     -13.670  -6.412  28.009  1.00  0.00     0.010 C 
HETATM    9  C9  UNL     1     -13.339  -7.892  28.105  1.00  0.00     0.035 C 
HETATM   10  C10 UNL     1     -14.345  -8.602  27.247  1.00  0.00    -0.069 C 
HETATM   11  C11 UNL     1     -13.960  -9.148  26.078  1.00  0.00     0.030 C 
HETATM   12  C12 UNL     1     -14.944  -9.739  25.126  1.00  0.00     0.032 C 
HETATM   13  N1  UNL     1     -14.683 -10.181  23.935  1.00  0.00    -0.271 N 
ATOM     14  H1  UNL     1     -15.392 -10.529  23.290  1.00  0.00     0.194 HD
HETATM   15  C26 UNL     1     -16.382  -9.828  25.582  1.00  0.00     0.060 C 
HETATM   16  C27 UNL     1     -16.738  -8.671  26.508  1.00  0.00     0.020 C 
HETATM   17  C28 UNL     1     -15.789  -8.544  27.733  1.00  0.00    -0.016 C 
HETATM   18  C29 UNL     1     -16.009  -9.779  28.651  1.00  0.00     0.020 C 
HETATM   19  C30 UNL     1     -16.092  -7.246  28.607  1.00  0.00     0.002 C 
HETATM   20  C31 UNL     1     -17.545  -6.732  28.508  1.00  0.00     0.007 C 
HETATM   21  C32 UNL     1     -17.754  -5.434  29.278  1.00  0.00     0.014 C 
HETATM   22  C33 UNL     1     -16.859  -4.238  28.818  1.00  0.00     0.003 C 
HETATM   23  C34 UNL     1     -16.493  -3.457  30.099  1.00  0.00     0.020 C 
ENDROOT
BRANCH   3  24
HETATM   24  O1  UNL     1     -18.923  -3.151  27.972  1.00  0.00    -0.377 OA
HETATM   25  H2  UNL     1     -19.013  -2.559  28.738  1.00  0.00     0.211 HD
ENDBRANCH   3  24
BRANCH  13  26
HETATM   26  O2  UNL     1     -13.311 -10.128  23.636  1.00  0.00    -0.271 OA
BRANCH  26  27
HETATM   27  C13 UNL     1     -13.101 -10.663  22.333  1.00  0.00     0.303 C 
BRANCH  27  28
HETATM   28  C14 UNL     1     -11.646 -11.077  22.149  1.00  0.00     0.244 C 
HETATM   29  O3  UNL     1     -11.292 -12.232  21.904  1.00  0.00    -0.271 OA
HETATM   30  N2  UNL     1     -10.733 -10.050  22.244  1.00  0.00    -0.343 N 
HETATM   31  H16 UNL     1     -10.991  -9.186  22.710  1.00  0.00     0.163 HD
BRANCH  30  32
HETATM   32  C15 UNL     1      -9.286 -10.325  22.195  1.00  0.00     0.217 C 
BRANCH  32  33
HETATM   33  C16 UNL     1      -9.009 -11.449  23.191  1.00  0.00     0.284 C 
HETATM   34  O4  UNL     1      -9.415 -11.466  24.350  1.00  0.00    -0.263 OA
BRANCH  33  35
HETATM   35  O5  UNL     1      -8.200 -12.398  22.641  1.00  0.00    -0.320 OA
BRANCH  35  36
HETATM   36  C17 UNL     1      -8.435 -13.743  23.087  1.00  0.00     0.174 C 
HETATM   37  C18 UNL     1      -7.536 -14.066  24.270  1.00  0.00     0.034 C 
ENDBRANCH  35  36
ENDBRANCH  33  35
ENDBRANCH  32  33
BRANCH  32  38
HETATM   38  C19 UNL     1      -8.829 -10.685  20.766  1.00  0.00     0.183 C 
BRANCH  38  39
HETATM   39  O6  UNL     1      -7.396 -10.664  20.660  1.00  0.00    -0.388 OA
HETATM   40  H24 UNL     1      -7.182 -10.808  19.724  1.00  0.00     0.210 HD
ENDBRANCH  38  39
BRANCH  38  41
HETATM   41  C20 UNL     1      -9.456  -9.839  19.677  1.00  0.00    -0.027 A 
HETATM   42  C21 UNL     1      -8.883  -8.601  19.356  1.00  0.00     0.010 A 
HETATM   43  C22 UNL     1      -9.424  -7.807  18.341  1.00  0.00     0.001 A 
HETATM   44  C23 UNL     1     -10.537  -8.251  17.633  1.00  0.00     0.000 A 
HETATM   45  C24 UNL     1     -11.127  -9.476  17.954  1.00  0.00     0.001 A 
HETATM   46  C25 UNL     1     -10.589 -10.269  18.966  1.00  0.00     0.010 A 
ENDBRANCH  38  41
ENDBRANCH  32  38
ENDBRANCH  30  32
ENDBRANCH  27  28
ENDBRANCH  26  27
ENDBRANCH  13  26
TORSDOF 11
ENDMDL
