MODEL 1
REMARK minimizedAffinity -8.43687153
REMARK CNNscore 0.809702575
REMARK CNNaffinity 7.17042351
REMARK  13 active torsions:
REMARK  status: ('A' for Active; 'I' for Inactive)
REMARK    1  A    between atoms: C19_21  and  O3_22 
REMARK    2  A    between atoms: C19_21  and  C20_23 
REMARK    3  A    between atoms: C20_23  and  C21_25 
REMARK    4  A    between atoms: C21_25  and  O5_26 
REMARK    5  A    between atoms: O5_26  and  C22_27 
REMARK    6  A    between atoms: C22_27  and  C23_29 
REMARK    7  A    between atoms: C23_29  and  C24_30 
REMARK    8  A    between atoms: C24_30  and  C25_31 
REMARK       I    between atoms: C25_31  and  N1_33 
REMARK    9  A    between atoms: N1_33  and  C26_34 
REMARK   10  A    between atoms: C26_34  and  C27_35 
REMARK   11  A    between atoms: C27_35  and  C28_36 
REMARK   12  A    between atoms: C31_39  and  O8_40 
REMARK   13  A    between atoms: C32_41  and  O9_42 
ROOT
HETATM    1  C20 UNL     1      -3.226  49.870 -27.052  1.00  0.00     0.185 C 
HETATM    2  O4  UNL     1      -2.343  50.307 -27.796  1.00  0.00    -0.292 OA
ENDROOT
BRANCH   1   3
HETATM    3  C19 UNL     1      -3.576  50.550 -25.683  1.00  0.00     0.128 C 
HETATM    4  C14 UNL     1      -2.406  50.593 -24.637  1.00  0.00     0.005 C 
HETATM    5  C13 UNL     1      -2.644  51.684 -23.564  1.00  0.00     0.091 C 
HETATM    6  C15 UNL     1      -1.048  50.904 -25.311  1.00  0.00     0.019 C 
HETATM    7  C16 UNL     1      -2.426  49.182 -23.969  1.00  0.00     0.002 C 
HETATM    8  C12 UNL     1      -1.592  51.607 -22.480  1.00  0.00     0.133 C 
HETATM    9  C11 UNL     1      -1.314  50.239 -21.862  1.00  0.00     0.072 C 
HETATM   10  O2  UNL     1      -0.975  52.612 -22.132  1.00  0.00    -0.297 OA
HETATM   11  C2  UNL     1      -1.339  50.271 -20.282  1.00  0.00    -0.009 C 
HETATM   12  C10 UNL     1      -2.283  49.173 -22.423  1.00  0.00     0.003 C 
HETATM   13  C1  UNL     1       0.038  50.750 -19.766  1.00  0.00     0.021 C 
HETATM   14  C3  UNL     1      -2.462  51.195 -19.732  1.00  0.00     0.022 C 
HETATM   15  C7  UNL     1      -1.585  48.856 -19.739  1.00  0.00    -0.067 C 
HETATM   16  C4  UNL     1      -2.638  51.104 -18.217  1.00  0.00     0.084 C 
HETATM   17  C5  UNL     1      -2.805  49.678 -17.759  1.00  0.00     0.149 C 
HETATM   18  O1  UNL     1      -3.359  49.391 -16.700  1.00  0.00    -0.293 OA
HETATM   19  C6  UNL     1      -2.250  48.594 -18.602  1.00  0.00     0.053 C 
HETATM   20  C8  UNL     1      -1.106  47.740 -20.622  1.00  0.00     0.035 C 
HETATM   21  C9  UNL     1      -1.887  47.753 -21.936  1.00  0.00     0.010 C 
HETATM   22  C17 UNL     1      -3.774  48.539 -24.373  1.00  0.00     0.009 C 
HETATM   23  C18 UNL     1      -4.608  49.657 -24.987  1.00  0.00     0.047 C 
BRANCH   3  24
HETATM   24  O3  UNL     1      -4.104  51.860 -25.829  1.00  0.00    -0.381 OA
HETATM   25  H25 UNL     1      -4.937  51.816 -26.332  1.00  0.00     0.211 HD
ENDBRANCH   3  24
ENDBRANCH   1   3
BRANCH   1  26
HETATM   26  C21 UNL     1      -3.864  48.512 -27.357  1.00  0.00     0.260 C 
BRANCH  26  27
HETATM   27  O5  UNL     1      -5.205  48.553 -27.828  1.00  0.00    -0.314 OA
BRANCH  27  28
HETATM   28  C22 UNL     1      -5.388  47.964 -29.043  1.00  0.00     0.259 C 
HETATM   29  O6  UNL     1      -4.534  47.880 -29.915  1.00  0.00    -0.265 OA
BRANCH  28  30
HETATM   30  C23 UNL     1      -6.804  47.466 -29.186  1.00  0.00     0.120 C 
BRANCH  30  31
HETATM   31  C24 UNL     1      -6.810  45.970 -29.477  1.00  0.00     0.112 C 
BRANCH  31  32
HETATM   32  C25 UNL     1      -7.767  45.639 -30.606  1.00  0.00     0.218 C 
HETATM   33  O7  UNL     1      -8.600  44.742 -30.535  1.00  0.00    -0.274 OA
HETATM   34  N1  UNL     1      -7.629  46.465 -31.699  1.00  0.00    -0.361 N 
HETATM   35  H32 UNL     1      -6.778  47.006 -31.783  1.00  0.00     0.162 HD
BRANCH  34  36
HETATM   36  C26 UNL     1      -8.370  46.214 -32.923  1.00  0.00     0.127 C 
BRANCH  36  37
HETATM   37  C27 UNL     1      -8.454  47.441 -33.839  1.00  0.00     0.058 C 
BRANCH  37  38
HETATM   38  C28 UNL     1      -8.749  47.074 -35.277  1.00  0.00    -0.054 A 
HETATM   39  C29 UNL     1      -8.044  47.694 -36.323  1.00  0.00     0.010 A 
HETATM   40  C30 UNL     1      -8.329  47.387 -37.655  1.00  0.00     0.040 A 
HETATM   41  C31 UNL     1      -9.317  46.456 -37.937  1.00  0.00     0.098 A 
HETATM   42  C32 UNL     1     -10.019  45.829 -36.911  1.00  0.00     0.099 A 
HETATM   43  C33 UNL     1      -9.745  46.132 -35.582  1.00  0.00     0.046 A 
BRANCH  41  44
HETATM   44  O8  UNL     1      -9.602  46.157 -39.239  1.00  0.00    -0.358 OA
HETATM   45  H39 UNL     1     -10.301  45.476 -39.186  1.00  0.00     0.217 HD
ENDBRANCH  41  44
BRANCH  42  46
HETATM   46  O9  UNL     1     -10.976  44.915 -37.263  1.00  0.00    -0.358 OA
HETATM   47  H40 UNL     1     -11.344  44.533 -36.448  1.00  0.00     0.217 HD
ENDBRANCH  42  46
ENDBRANCH  37  38
ENDBRANCH  36  37
ENDBRANCH  34  36
ENDBRANCH  31  32
ENDBRANCH  30  31
ENDBRANCH  28  30
ENDBRANCH  27  28
ENDBRANCH  26  27
ENDBRANCH   1  26
TORSDOF 13
ENDMDL
