MODEL 1
REMARK minimizedAffinity -9.75053692
REMARK  9 active torsions:
REMARK  status: ('A' for Active; 'I' for Inactive)
REMARK    1  A    between atoms: C2_2  and  C30_33 
REMARK    2  A    between atoms: C3_3  and  C4_4 
REMARK    3  A    between atoms: C4_4  and  C5_5 
REMARK    4  A    between atoms: C5_5  and  C6_6 
REMARK    5  A    between atoms: C6_6  and  C8_8 
REMARK    6  A    between atoms: C10_10  and  O1_11 
REMARK    7  A    between atoms: C23_24  and  O2_25 
REMARK    8  A    between atoms: C29_31  and  O3_32 
REMARK    9  A    between atoms: C30_33  and  O4_34 
ROOT
HETATM    1  C8  UNL     1      -3.408  50.497 -25.268  1.00  0.00     0.001 C 
HETATM    2  C9  UNL     1      -4.934  50.541 -24.983  1.00  0.00     0.038 C 
HETATM    3  C10 UNL     1      -5.098  50.389 -23.453  1.00  0.00     0.132 C 
HETATM    4  C11 UNL     1      -3.702  50.732 -22.874  1.00  0.00     0.016 C 
HETATM    5  C12 UNL     1      -3.535  52.291 -22.845  1.00  0.00     0.023 C 
HETATM    6  C13 UNL     1      -3.340  50.265 -21.466  1.00  0.00    -0.037 C 
HETATM    7  C14 UNL     1      -2.031  50.075 -21.143  1.00  0.00    -0.065 C 
HETATM    8  C15 UNL     1      -0.920  50.171 -22.209  1.00  0.00     0.036 C 
HETATM    9  C16 UNL     1      -1.340  50.416 -23.676  1.00  0.00     0.015 C 
HETATM   10  C17 UNL     1      -2.792  49.992 -23.928  1.00  0.00    -0.026 C 
HETATM   11  C18 UNL     1      -2.868  48.444 -23.820  1.00  0.00     0.016 C 
HETATM   12  C19 UNL     1      -1.590  49.684 -19.700  1.00  0.00    -0.016 C 
HETATM   13  C20 UNL     1      -1.266  48.172 -19.769  1.00  0.00     0.020 C 
HETATM   14  C21 UNL     1      -0.322  50.487 -19.276  1.00  0.00     0.016 C 
HETATM   15  C22 UNL     1      -0.260  50.930 -17.808  1.00  0.00     0.033 C 
HETATM   16  C23 UNL     1      -0.902  49.943 -16.841  1.00  0.00     0.126 C 
HETATM   17  C24 UNL     1      -2.412  49.715 -17.158  1.00  0.00    -0.017 C 
HETATM   18  C25 UNL     1      -3.217  50.741 -16.306  1.00  0.00     0.018 C 
HETATM   19  C26 UNL     1      -2.872  48.318 -16.689  1.00  0.00     0.018 C 
HETATM   20  C27 UNL     1      -2.734  50.014 -18.677  1.00  0.00     0.011 C 
HETATM   21  C28 UNL     1      -4.076  49.437 -19.154  1.00  0.00     0.043 C 
HETATM   22  C29 UNL     1      -4.484  50.031 -20.502  1.00  0.00     0.148 C 
ENDROOT
BRANCH   1  23
HETATM   23  C6  UNL     1      -2.978  49.883 -26.635  1.00  0.00    -0.013 C 
HETATM   24  C7  UNL     1      -3.961  48.889 -27.268  1.00  0.00     0.010 C 
BRANCH  23  25
HETATM   25  C5  UNL     1      -2.703  51.036 -27.649  1.00  0.00     0.008 C 
BRANCH  25  26
HETATM   26  C4  UNL     1      -1.662  52.066 -27.176  1.00  0.00     0.028 C 
BRANCH  26  27
HETATM   27  C3  UNL     1      -0.311  51.920 -27.815  1.00  0.00    -0.022 C 
HETATM   28  C2  UNL     1       0.897  51.856 -27.218  1.00  0.00    -0.064 C 
HETATM   29  C1  UNL     1       1.137  51.911 -25.732  1.00  0.00     0.045 C 
BRANCH  28  30
HETATM   30  C30 UNL     1       2.154  51.732 -28.044  1.00  0.00     0.197 C 
BRANCH  30  31
HETATM   31  O4  UNL     1       3.250  51.446 -27.191  1.00  0.00    -0.397 OA
HETATM   32  H50 UNL     1       2.966  50.723 -26.606  1.00  0.00     0.209 HD
ENDBRANCH  30  31
ENDBRANCH  28  30
ENDBRANCH  26  27
ENDBRANCH  25  26
ENDBRANCH  23  25
ENDBRANCH   1  23
BRANCH   3  33
HETATM   33  O1  UNL     1      -6.128  51.228 -22.945  1.00  0.00    -0.394 OA
HETATM   34  H17 UNL     1      -6.926  51.060 -23.479  1.00  0.00     0.210 HD
ENDBRANCH   3  33
BRANCH  22  35
HETATM   35  O3  UNL     1      -5.153  51.264 -20.259  1.00  0.00    -0.391 OA
HETATM   36  H47 UNL     1      -5.634  51.474 -21.087  1.00  0.00     0.210 HD
ENDBRANCH  22  35
BRANCH  16  37
HETATM   37  O2  UNL     1      -0.159  48.727 -16.867  1.00  0.00    -0.395 OA
HETATM   38  H36 UNL     1       0.754  48.935 -16.601  1.00  0.00     0.210 HD
ENDBRANCH  16  37
TORSDOF 9
ENDMDL
