MODEL 1
REMARK minimizedAffinity -10.0307798
REMARK  6 active torsions:
REMARK  status: ('A' for Active; 'I' for Inactive)
REMARK    1  A    between atoms: C2_2  and  C30_32 
REMARK    2  A    between atoms: C3_3  and  C4_4 
REMARK    3  A    between atoms: C4_4  and  C5_5 
REMARK    4  A    between atoms: C5_5  and  C6_6 
REMARK    5  A    between atoms: C6_6  and  C8_8 
REMARK    6  A    between atoms: C30_32  and  O4_34 
ROOT
HETATM    1  C8  UNL     1      -1.965   6.243  12.730  1.00  0.00    -0.002 C 
HETATM    2  C9  UNL     1      -1.961   7.197  13.958  1.00  0.00     0.007 C 
HETATM    3  C10 UNL     1      -0.661   8.020  13.900  1.00  0.00     0.015 C 
HETATM    4  C11 UNL     1      -0.102   7.788  12.484  1.00  0.00    -0.005 C 
HETATM    5  C12 UNL     1      -0.846   8.778  11.532  1.00  0.00     0.021 C 
HETATM    6  C13 UNL     1       1.377   8.012  12.192  1.00  0.00    -0.000 C 
HETATM    7  C14 UNL     1       2.033   7.281  11.253  1.00  0.00    -0.060 C 
HETATM    8  C15 UNL     1       1.295   6.182  10.467  1.00  0.00     0.036 C 
HETATM    9  C16 UNL     1      -0.181   5.912  10.826  1.00  0.00     0.015 C 
HETATM   10  C17 UNL     1      -0.471   6.264  12.290  1.00  0.00    -0.028 C 
HETATM   11  C18 UNL     1       0.353   5.307  13.210  1.00  0.00     0.016 C 
HETATM   12  C19 UNL     1       3.533   7.487  10.900  1.00  0.00    -0.014 C 
HETATM   13  C20 UNL     1       3.580   8.221   9.538  1.00  0.00     0.020 C 
HETATM   14  C21 UNL     1       4.256   6.112  10.770  1.00  0.00     0.021 C 
HETATM   15  C22 UNL     1       5.768   6.119  10.974  1.00  0.00     0.080 C 
HETATM   16  C23 UNL     1       6.375   7.495  10.879  1.00  0.00     0.135 C 
HETATM   17  O1  UNL     1       7.358   7.693  10.166  1.00  0.00    -0.297 OA
HETATM   18  C24 UNL     1       5.774   8.584  11.775  1.00  0.00     0.018 C 
HETATM   19  C25 UNL     1       6.550   8.539  13.108  1.00  0.00     0.023 C 
HETATM   20  C26 UNL     1       6.033   9.964  11.136  1.00  0.00     0.023 C 
HETATM   21  C27 UNL     1       4.257   8.279  12.039  1.00  0.00     0.020 C 
HETATM   22  C28 UNL     1       3.460   9.517  12.441  1.00  0.00     0.090 C 
HETATM   23  C29 UNL     1       2.068   9.150  12.879  1.00  0.00     0.157 C 
HETATM   24  O2  UNL     1       1.497   9.825  13.734  1.00  0.00    -0.293 OA
ENDROOT
BRANCH   1  25
HETATM   25  C6  UNL     1      -2.665   4.891  13.045  1.00  0.00    -0.014 C 
HETATM   26  C7  UNL     1      -2.742   3.960  11.832  1.00  0.00     0.010 C 
BRANCH  25  27
HETATM   27  C5  UNL     1      -4.068   5.069  13.695  1.00  0.00     0.008 C 
BRANCH  27  28
HETATM   28  C4  UNL     1      -5.305   4.863  12.806  1.00  0.00     0.028 C 
BRANCH  28  29
HETATM   29  C3  UNL     1      -5.301   3.569  12.041  1.00  0.00    -0.013 C 
HETATM   30  C2  UNL     1      -6.209   2.574  12.082  1.00  0.00     0.008 C 
HETATM   31  C1  UNL     1      -6.121   1.368  11.197  1.00  0.00     0.055 C 
BRANCH  30  32
HETATM   32  C30 UNL     1      -7.397   2.589  12.960  1.00  0.00     0.171 C 
HETATM   33  O3  UNL     1      -7.529   3.269  13.962  1.00  0.00    -0.646 OA
BRANCH  32  34
HETATM   34  O4  UNL     1      -8.395   1.833  12.481  1.00  0.00    -0.773 OA
HETATM   35  H44 UNL     1      -9.125   1.973  13.118  1.00  0.00     0.167 HD
ENDBRANCH  32  34
ENDBRANCH  30  32
ENDBRANCH  28  29
ENDBRANCH  27  28
ENDBRANCH  25  27
ENDBRANCH   1  25
TORSDOF 6
ENDMDL
