MODEL 1
REMARK minimizedAffinity -8.72732639
REMARK CNNscore 0.780905902
REMARK CNNaffinity 6.74088907
REMARK  12 active torsions:
REMARK  status: ('A' for Active; 'I' for Inactive)
REMARK    1  A    between atoms: C2_2  and  C17_19 
REMARK    2  A    between atoms: C3_3  and  C4_4 
REMARK    3  A    between atoms: C4_4  and  C5_5 
REMARK    4  A    between atoms: C5_5  and  C6_6 
REMARK    5  A    between atoms: C12_12  and  O1_13 
REMARK    6  A    between atoms: C17_19  and  C18_20 
REMARK    7  A    between atoms: C19_21  and  C20_22 
REMARK    8  A    between atoms: C20_22  and  C22_24 
REMARK    9  A    between atoms: C22_24  and  C23_26 
REMARK   10  A    between atoms: C23_26  and  O4_27 
REMARK   11  A    between atoms: C23_26  and  C24_28 
REMARK   12  A    between atoms: C24_28  and  C25_29 
ROOT
HETATM    1  C1  UNL     1      -0.936   7.567  15.749  1.00  0.00     0.043 C 
HETATM    2  C2  UNL     1      -0.890   6.393  14.806  1.00  0.00    -0.084 C 
HETATM    3  C3  UNL     1      -1.905   5.514  14.651  1.00  0.00    -0.024 C 
ENDROOT
BRANCH   3   4
HETATM    4  C4  UNL     1      -3.264   5.591  15.282  1.00  0.00     0.030 C 
BRANCH   4   5
HETATM    5  C5  UNL     1      -4.053   6.880  15.034  1.00  0.00     0.042 C 
BRANCH   5   6
HETATM    6  C6  UNL     1      -4.479   7.224  13.580  1.00  0.00     0.065 C 
HETATM    7  C7  UNL     1      -3.526   8.262  12.961  1.00  0.00     0.046 C 
HETATM    8  C8  UNL     1      -5.920   7.725  13.422  1.00  0.00     0.043 C 
HETATM    9  C9  UNL     1      -6.920   6.664  13.856  1.00  0.00     0.044 C 
HETATM   10  C10 UNL     1      -6.551   5.327  13.287  1.00  0.00    -0.021 A 
HETATM   11  C11 UNL     1      -7.496   4.292  13.293  1.00  0.00     0.046 A 
HETATM   12  C16 UNL     1      -5.264   5.085  12.784  1.00  0.00     0.082 A 
HETATM   13  C12 UNL     1      -7.159   3.049  12.775  1.00  0.00     0.066 A 
HETATM   14  C13 UNL     1      -5.897   2.810  12.247  1.00  0.00     0.046 A 
HETATM   15  C14 UNL     1      -4.935   3.832  12.242  1.00  0.00    -0.025 A 
HETATM   16  C15 UNL     1      -3.567   3.571  11.681  1.00  0.00     0.051 C 
HETATM   17  O2  UNL     1      -4.273   6.034  12.776  1.00  0.00    -0.340 OA
BRANCH  13  18
HETATM   18  O1  UNL     1      -8.048   2.011  12.777  1.00  0.00    -0.361 OA
HETATM   19  H17 UNL     1      -8.872   2.306  13.206  1.00  0.00     0.217 HD
ENDBRANCH  13  18
ENDBRANCH   5   6
ENDBRANCH   4   5
ENDBRANCH   3   4
BRANCH   2  20
HETATM   20  C17 UNL     1       0.406   6.237  14.030  1.00  0.00     0.060 C 
BRANCH  20  21
HETATM   21  C18 UNL     1       0.627   7.389  13.087  1.00  0.00    -0.026 C 
HETATM   22  C19 UNL     1       1.528   7.497  12.096  1.00  0.00    -0.019 C 
BRANCH  22  23
HETATM   23  C20 UNL     1       2.567   6.484  11.679  1.00  0.00     0.076 C 
HETATM   24  C21 UNL     1       3.928   7.130  11.451  1.00  0.00     0.022 C 
BRANCH  23  25
HETATM   25  C22 UNL     1       2.092   5.705  10.446  1.00  0.00     0.162 C 
HETATM   26  O3  UNL     1       1.115   4.950  10.521  1.00  0.00    -0.294 OA
BRANCH  25  27
HETATM   27  C23 UNL     1       2.836   5.903   9.116  1.00  0.00     0.188 C 
BRANCH  27  28
HETATM   28  O4  UNL     1       4.085   5.217   9.113  1.00  0.00    -0.388 OA
HETATM   29  H31 UNL     1       4.720   5.746   9.643  1.00  0.00     0.210 HD
ENDBRANCH  27  28
BRANCH  27  30
HETATM   30  C24 UNL     1       3.014   7.375   8.707  1.00  0.00     0.043 C 
BRANCH  30  31
HETATM   31  C25 UNL     1       2.036   7.987   7.680  1.00  0.00    -0.020 C 
HETATM   32  C26 UNL     1       0.701   8.278   8.375  1.00  0.00     0.009 C 
HETATM   33  C27 UNL     1       1.773   7.103   6.459  1.00  0.00     0.009 C 
ENDBRANCH  30  31
ENDBRANCH  27  30
ENDBRANCH  25  27
ENDBRANCH  23  25
ENDBRANCH  22  23
ENDBRANCH  20  21
ENDBRANCH   2  20
TORSDOF 12
ENDMDL
