MODEL 1
REMARK minimizedAffinity -7.45355034
REMARK CNNscore 0.524843216
REMARK CNNaffinity 6.47401571
REMARK  4 active torsions:
REMARK  status: ('A' for Active; 'I' for Inactive)
REMARK    1  A    between atoms: C4_4  and  C5_5 
REMARK    2  A    between atoms: C5_5  and  C6_7 
REMARK    3  A    between atoms: C6_7  and  C7_8 
REMARK    4  A    between atoms: C7_8  and  C9_10 
ROOT
HETATM    1  C9  UNL     1       0.194  11.488  19.373  1.00  0.00    -0.002 C 
HETATM    2  C10 UNL     1      -0.819  12.643  19.633  1.00  0.00     0.006 C 
HETATM    3  C11 UNL     1      -1.795  12.686  18.440  1.00  0.00     0.011 C 
HETATM    4  C12 UNL     1      -1.534  11.379  17.676  1.00  0.00    -0.032 C 
HETATM    5  C13 UNL     1      -2.342  10.258  18.420  1.00  0.00     0.016 C 
HETATM    6  C14 UNL     1      -1.934  11.367  16.160  1.00  0.00     0.004 C 
HETATM    7  C15 UNL     1      -3.424  11.733  15.945  1.00  0.00     0.007 C 
HETATM    8  C16 UNL     1      -4.297  10.780  15.132  1.00  0.00     0.007 C 
HETATM    9  C17 UNL     1      -3.983   9.304  15.409  1.00  0.00     0.010 C 
HETATM   10  C18 UNL     1      -4.913   8.299  14.652  1.00  0.00     0.018 C 
HETATM   11  C19 UNL     1      -4.792   8.390  13.122  1.00  0.00     0.023 C 
HETATM   12  C20 UNL     1      -6.387   8.512  15.052  1.00  0.00     0.023 C 
HETATM   13  C21 UNL     1      -4.536   6.866  15.058  1.00  0.00     0.135 C 
HETATM   14  O2  UNL     1      -5.231   5.895  14.750  1.00  0.00    -0.297 OA
HETATM   15  C22 UNL     1      -3.294   6.676  15.891  1.00  0.00     0.080 C 
HETATM   16  C23 UNL     1      -2.153   7.501  15.321  1.00  0.00     0.018 C 
HETATM   17  C24 UNL     1      -2.500   8.978  15.165  1.00  0.00    -0.026 A 
HETATM   18  C25 UNL     1      -1.776   9.749  14.078  1.00  0.00     0.021 A 
HETATM   19  C26 UNL     1      -1.444  10.042  15.523  1.00  0.00    -0.027 A 
HETATM   20  C27 UNL     1       0.021   9.695  15.834  1.00  0.00     0.011 C 
HETATM   21  C28 UNL     1       0.435   9.864  17.302  1.00  0.00     0.011 C 
HETATM   22  C29 UNL     1       0.033  11.247  17.840  1.00  0.00    -0.032 C 
HETATM   23  C30 UNL     1       0.850  12.336  17.079  1.00  0.00     0.016 C 
ENDROOT
BRANCH   1  24
HETATM   24  C7  UNL     1       1.592  11.786  19.986  1.00  0.00    -0.007 C 
HETATM   25  C8  UNL     1       2.168  13.131  19.531  1.00  0.00     0.011 C 
BRANCH  24  26
HETATM   26  C6  UNL     1       2.621  10.662  19.711  1.00  0.00     0.087 C 
BRANCH  26  27
HETATM   27  C5  UNL     1       3.777  10.610  20.699  1.00  0.00     0.149 C 
HETATM   28  O1  UNL     1       4.951  10.565  20.335  1.00  0.00    -0.293 OA
BRANCH  27  29
HETATM   29  C4  UNL     1       3.488  10.728  22.151  1.00  0.00     0.052 C 
HETATM   30  C2  UNL     1       2.929   9.778  22.921  1.00  0.00    -0.084 C 
HETATM   31  C1  UNL     1       2.696  10.035  24.384  1.00  0.00     0.043 C 
HETATM   32  C3  UNL     1       2.532   8.405  22.457  1.00  0.00     0.043 C 
ENDBRANCH  27  29
ENDBRANCH  26  27
ENDBRANCH  24  26
ENDBRANCH   1  24
TORSDOF 4
ENDMDL
