MODEL 1
REMARK minimizedAffinity -9.52080441
REMARK  7 active torsions:
REMARK  status: ('A' for Active; 'I' for Inactive)
REMARK    1  A    between atoms: C2_2  and  C30_32 
REMARK    2  A    between atoms: C3_3  and  C4_4 
REMARK    3  A    between atoms: C4_4  and  O1_5 
REMARK    4  A    between atoms: C4_4  and  C5_6 
REMARK    5  A    between atoms: C5_6  and  C6_7 
REMARK    6  A    between atoms: C6_7  and  C8_9 
REMARK    7  A    between atoms: C30_32  and  O3_33 
ROOT
HETATM    1  C8  UNL     1       0.727   6.654  12.528  1.00  0.00    -0.002 C 
HETATM    2  C9  UNL     1       0.619   5.868  11.183  1.00  0.00     0.007 C 
HETATM    3  C10 UNL     1      -0.820   5.323  11.076  1.00  0.00     0.015 C 
HETATM    4  C11 UNL     1      -1.405   5.505  12.487  1.00  0.00    -0.013 C 
HETATM    5  C12 UNL     1      -0.889   4.287  13.331  1.00  0.00     0.021 C 
HETATM    6  C13 UNL     1      -2.928   5.499  12.656  1.00  0.00    -0.070 C 
HETATM    7  C14 UNL     1      -3.681   4.622  11.980  1.00  0.00    -0.022 C 
HETATM    8  C15 UNL     1      -5.107   4.347  12.289  1.00  0.00     0.034 C 
HETATM    9  C16 UNL     1      -5.504   4.660  13.760  1.00  0.00     0.013 C 
HETATM   10  C17 UNL     1      -7.041   4.338  13.972  1.00  0.00     0.018 C 
HETATM   11  C18 UNL     1      -7.434   2.991  13.310  1.00  0.00     0.023 C 
HETATM   12  C19 UNL     1      -7.440   4.202  15.459  1.00  0.00     0.023 C 
HETATM   13  C20 UNL     1      -7.879   5.459  13.339  1.00  0.00     0.135 C 
HETATM   14  O2  UNL     1      -8.913   5.227  12.711  1.00  0.00    -0.297 OA
HETATM   15  C21 UNL     1      -7.463   6.890  13.602  1.00  0.00     0.080 C 
HETATM   16  C22 UNL     1      -5.974   7.116  13.380  1.00  0.00     0.017 C 
HETATM   17  C23 UNL     1      -5.047   6.122  14.151  1.00  0.00    -0.031 C 
HETATM   18  C24 UNL     1      -5.208   6.401  15.662  1.00  0.00     0.016 C 
HETATM   19  C25 UNL     1      -3.527   6.430  13.713  1.00  0.00     0.024 C 
HETATM   20  C26 UNL     1      -2.495   6.658  14.850  1.00  0.00     0.010 C 
HETATM   21  C27 UNL     1      -1.090   7.131  14.386  1.00  0.00     0.011 C 
HETATM   22  C28 UNL     1      -0.779   6.884  12.895  1.00  0.00    -0.029 C 
HETATM   23  C29 UNL     1      -1.290   8.089  12.040  1.00  0.00     0.016 C 
ENDROOT
BRANCH   1  24
HETATM   24  C6  UNL     1       1.704   7.866  12.429  1.00  0.00    -0.011 C 
HETATM   25  C7  UNL     1       2.834   7.773  13.460  1.00  0.00     0.010 C 
BRANCH  24  26
HETATM   26  C5  UNL     1       2.293   7.960  10.991  1.00  0.00     0.040 C 
BRANCH  26  27
HETATM   27  C4  UNL     1       3.780   7.595  10.863  1.00  0.00     0.141 C 
BRANCH  27  28
HETATM   28  C3  UNL     1       3.968   6.154  10.456  1.00  0.00     0.009 C 
HETATM   29  C2  UNL     1       3.574   5.513   9.333  1.00  0.00    -0.062 C 
HETATM   30  C1  UNL     1       2.764   6.152   8.232  1.00  0.00     0.045 C 
BRANCH  29  31
HETATM   31  C30 UNL     1       3.895   4.060   9.055  1.00  0.00     0.198 C 
BRANCH  31  32
HETATM   32  O3  UNL     1       3.215   3.182   9.939  1.00  0.00    -0.397 OA
HETATM   33  H48 UNL     1       2.268   3.275   9.737  1.00  0.00     0.209 HD
ENDBRANCH  31  32
ENDBRANCH  29  31
ENDBRANCH  27  28
BRANCH  27  34
HETATM   34  O1  UNL     1       4.430   8.463   9.945  1.00  0.00    -0.392 OA
HETATM   35  H6  UNL     1       5.294   8.064   9.748  1.00  0.00     0.210 HD
ENDBRANCH  27  34
ENDBRANCH  26  27
ENDBRANCH  24  26
ENDBRANCH   1  24
TORSDOF 7
ENDMDL
