MODEL 1
REMARK minimizedAffinity -7.60488319
REMARK CNNscore 0.771991968
REMARK CNNaffinity 6.78821516
REMARK  6 active torsions:
REMARK  status: ('A' for Active; 'I' for Inactive)
REMARK    1  A    between atoms: C13_15  and  O3_16 
REMARK    2  A    between atoms: C22_26  and  O5_27 
REMARK    3  A    between atoms: C23_28  and  O6_29 
REMARK    4  A    between atoms: C29_36  and  C30_37 
REMARK    5  A    between atoms: C30_37  and  C32_39 
REMARK    6  A    between atoms: C32_39  and  O8_40 
ROOT
HETATM    1  C1  UNL     1      -2.988  50.081 -11.728  1.00  0.00     0.046 C 
HETATM    2  C2  UNL     1      -1.946  51.100 -11.364  1.00  0.00    -0.056 C 
HETATM    3  C3  UNL     1      -0.823  50.749 -10.709  1.00  0.00    -0.004 C 
HETATM    4  C4  UNL     1       0.163  51.781 -10.237  1.00  0.00     0.150 C 
HETATM    5  C5  UNL     1       1.526  51.207  -9.868  1.00  0.00     0.270 C 
HETATM    6  O1  UNL     1       1.823  50.972  -8.694  1.00  0.00    -0.264 OA
HETATM    7  O2  UNL     1       2.342  50.953 -10.930  1.00  0.00    -0.315 OA
HETATM    8  C6  UNL     1       3.725  50.580 -10.664  1.00  0.00     0.139 C 
HETATM    9  C7  UNL     1       4.492  51.764 -10.078  1.00  0.00     0.065 C 
HETATM   10  C8  UNL     1       5.844  51.313  -9.555  1.00  0.00     0.131 C 
HETATM   11  C9  UNL     1       6.717  52.478  -9.022  1.00  0.00     0.059 C 
HETATM   12  C10 UNL     1       6.028  53.361  -8.005  1.00  0.00    -0.019 C 
HETATM   13  C11 UNL     1       5.875  54.704  -8.036  1.00  0.00    -0.059 C 
HETATM   14  C12 UNL     1       6.457  55.594  -9.105  1.00  0.00     0.046 C 
HETATM   15  C13 UNL     1       5.056  55.391  -6.939  1.00  0.00     0.153 C 
HETATM   16  C14 UNL     1       3.769  56.174  -7.378  1.00  0.00     0.037 C 
HETATM   17  C15 UNL     1       4.036  57.609  -7.852  1.00  0.00     0.017 C 
HETATM   18  C16 UNL     1       2.935  55.341  -8.328  1.00  0.00    -0.020 C 
HETATM   19  C17 UNL     1       2.737  55.563  -9.639  1.00  0.00    -0.003 C 
HETATM   20  C18 UNL     1       2.102  54.580 -10.472  1.00  0.00     0.008 C 
HETATM   21  C19 UNL     1       0.825  54.187 -10.381  1.00  0.00    -0.019 C 
HETATM   22  C20 UNL     1      -0.267  54.828  -9.570  1.00  0.00     0.206 C 
HETATM   23  O4  UNL     1      -1.500  54.199 -10.000  1.00  0.00    -0.375 OA
HETATM   24  C21 UNL     1      -1.218  53.606 -11.287  1.00  0.00     0.194 C 
HETATM   25  C22 UNL     1      -2.258  52.544 -11.723  1.00  0.00     0.179 C 
HETATM   26  C23 UNL     1       0.197  53.045 -11.129  1.00  0.00     0.128 C 
HETATM   27  O7  UNL     1       5.610  50.365  -8.509  1.00  0.00    -0.349 OA
HETATM   28  C24 UNL     1       5.108  49.115  -8.989  1.00  0.00     0.167 C 
HETATM   29  C25 UNL     1       4.735  48.282  -7.739  1.00  0.00     0.069 C 
HETATM   30  C26 UNL     1       4.997  46.800  -7.998  1.00  0.00     0.012 C 
HETATM   31  C27 UNL     1       6.507  46.582  -8.223  1.00  0.00     0.011 C 
HETATM   32  C28 UNL     1       7.184  46.320  -6.869  1.00  0.00     0.012 C 
HETATM   33  C29 UNL     1       7.136  47.798  -8.964  1.00  0.00     0.134 C 
HETATM   34  O9  UNL     1       6.125  48.445  -9.761  1.00  0.00    -0.349 OA
HETATM   35  C33 UNL     1       3.859  49.251  -9.900  1.00  0.00     0.101 C 
ENDROOT
BRANCH  33  36
HETATM   36  C30 UNL     1       8.284  47.419  -9.944  1.00  0.00     0.035 C 
HETATM   37  C31 UNL     1       9.595  48.093  -9.510  1.00  0.00     0.015 C 
BRANCH  36  38
HETATM   38  C32 UNL     1       8.495  45.907 -10.109  1.00  0.00     0.170 C 
BRANCH  38  39
HETATM   39  O8  UNL     1       9.654  45.636 -10.897  1.00  0.00    -0.400 OA
HETATM   40  H46 UNL     1       9.755  44.666 -10.933  1.00  0.00     0.209 HD
ENDBRANCH  38  39
ENDBRANCH  36  38
ENDBRANCH  33  36
BRANCH  15  41
HETATM   41  O3  UNL     1       5.901  56.243  -6.171  1.00  0.00    -0.391 OA
HETATM   42  H17 UNL     1       6.826  55.997  -6.372  1.00  0.00     0.210 HD
ENDBRANCH  15  41
BRANCH  26  43
HETATM   43  O6  UNL     1       0.788  52.836 -12.407  1.00  0.00    -0.381 OA
HETATM   44  H30 UNL     1       0.958  53.708 -12.808  1.00  0.00     0.211 HD
ENDBRANCH  26  43
BRANCH  25  45
HETATM   45  O5  UNL     1      -2.392  52.594 -13.148  1.00  0.00    -0.389 OA
HETATM   46  H29 UNL     1      -1.585  52.189 -13.522  1.00  0.00     0.210 HD
ENDBRANCH  25  45
TORSDOF 6
ENDMDL
