MODEL 1
REMARK minimizedAffinity -10.1952143
REMARK  11 active torsions:
REMARK  status: ('A' for Active; 'I' for Inactive)
REMARK    1  A    between atoms: C2_2  and  C3_3 
REMARK    2  A    between atoms: C2_2  and  C10_11 
REMARK    3  A    between atoms: C4_4  and  C5_5 
REMARK    4  A    between atoms: C5_5  and  C7_7 
REMARK    5  A    between atoms: C7_7  and  C9_9 
REMARK    6  A    between atoms: C9_9  and  O1_10 
REMARK    7  A    between atoms: C11_12  and  O2_13 
REMARK    8  A    between atoms: C12_14  and  O3_15 
REMARK    9  A    between atoms: C23_26  and  O4_27 
REMARK   10  A    between atoms: C26_30  and  O5_31 
REMARK   11  A    between atoms: C28_33  and  O6_34 
ROOT
HETATM    1  C10 UNL     1      -2.651  49.373 -26.011  1.00  0.00     0.033 C 
HETATM    2  C11 UNL     1      -2.004  50.636 -26.661  1.00  0.00     0.152 C 
HETATM    3  C12 UNL     1      -1.441  51.486 -25.485  1.00  0.00     0.155 C 
HETATM    4  C13 UNL     1      -1.665  50.610 -24.250  1.00  0.00     0.060 C 
HETATM    5  C14 UNL     1      -2.988  49.839 -24.556  1.00  0.00    -0.028 C 
HETATM    6  C15 UNL     1      -4.287  50.679 -24.498  1.00  0.00     0.016 C 
HETATM    7  C16 UNL     1      -3.100  48.704 -23.523  1.00  0.00     0.011 C 
HETATM    8  C17 UNL     1      -3.047  49.242 -22.078  1.00  0.00     0.009 C 
HETATM    9  C18 UNL     1      -1.765  50.073 -21.800  1.00  0.00     0.029 C 
HETATM   10  C19 UNL     1      -1.589  50.519 -20.295  1.00  0.00    -0.031 C 
HETATM   11  C20 UNL     1      -2.778  51.397 -19.825  1.00  0.00     0.016 C 
HETATM   12  C21 UNL     1      -1.538  49.257 -19.367  1.00  0.00     0.012 C 
HETATM   13  C22 UNL     1      -0.422  49.262 -18.311  1.00  0.00     0.032 C 
HETATM   14  C23 UNL     1      -0.175  50.628 -17.682  1.00  0.00     0.118 C 
HETATM   15  C24 UNL     1       0.049  51.737 -18.720  1.00  0.00     0.039 C 
HETATM   16  C25 UNL     1      -0.228  51.275 -20.168  1.00  0.00     0.025 C 
HETATM   17  C26 UNL     1      -0.078  52.429 -21.175  1.00  0.00     0.126 C 
HETATM   18  C27 UNL     1      -0.246  51.942 -22.617  1.00  0.00     0.071 C 
HETATM   19  C28 UNL     1      -1.586  51.232 -22.841  1.00  0.00     0.071 C 
ENDROOT
BRANCH   1  20
HETATM   20  C2  UNL     1      -3.670  48.545 -26.843  1.00  0.00     0.011 C 
HETATM   21  C1  UNL     1      -3.931  49.219 -28.202  1.00  0.00     0.015 C 
BRANCH  20  22
HETATM   22  C3  UNL     1      -4.949  48.097 -26.172  1.00  0.00    -0.026 C 
HETATM   23  C4  UNL     1      -6.093  47.739 -26.774  1.00  0.00    -0.026 C 
BRANCH  23  24
HETATM   24  C5  UNL     1      -7.351  47.350 -26.032  1.00  0.00     0.009 C 
HETATM   25  C6  UNL     1      -7.262  47.898 -24.603  1.00  0.00     0.014 C 
BRANCH  24  26
HETATM   26  C7  UNL     1      -8.639  47.767 -26.791  1.00  0.00     0.012 C 
HETATM   27  C8  UNL     1      -8.384  48.321 -28.199  1.00  0.00     0.012 C 
BRANCH  26  28
HETATM   28  C9  UNL     1      -9.464  48.771 -25.969  1.00  0.00     0.168 C 
BRANCH  28  29
HETATM   29  O1  UNL     1      -9.283  50.085 -26.481  1.00  0.00    -0.400 OA
HETATM   30  H17 UNL     1      -9.800  50.684 -25.917  1.00  0.00     0.209 HD
ENDBRANCH  28  29
ENDBRANCH  26  28
ENDBRANCH  24  26
ENDBRANCH  23  24
ENDBRANCH  20  22
ENDBRANCH   1  20
BRANCH   2  31
HETATM   31  O2  UNL     1      -2.885  51.403 -27.460  1.00  0.00    -0.393 OA
HETATM   32  H20 UNL     1      -3.100  52.209 -26.944  1.00  0.00     0.210 HD
ENDBRANCH   2  31
BRANCH   3  33
HETATM   33  O3  UNL     1      -2.128  52.737 -25.376  1.00  0.00    -0.392 OA
HETATM   34  H22 UNL     1      -1.493  53.426 -25.631  1.00  0.00     0.210 HD
ENDBRANCH   3  33
BRANCH  19  35
HETATM   35  O6  UNL     1      -2.590  52.224 -22.681  1.00  0.00    -0.389 OA
HETATM   36  H48 UNL     1      -2.662  52.713 -23.528  1.00  0.00     0.210 HD
ENDBRANCH  19  35
BRANCH  17  37
HETATM   37  O5  UNL     1       1.227  53.012 -21.065  1.00  0.00    -0.395 OA
HETATM   38  H45 UNL     1       1.884  52.296 -21.159  1.00  0.00     0.210 HD
ENDBRANCH  17  37
BRANCH  14  39
HETATM   39  O4  UNL     1      -1.280  50.979 -16.849  1.00  0.00    -0.396 OA
HETATM   40  H40 UNL     1      -1.383  50.278 -16.180  1.00  0.00     0.210 HD
ENDBRANCH  14  39
TORSDOF 11
ENDMDL
