MODEL 1
REMARK minimizedAffinity -6.90511036
REMARK CNNscore 0.695658207
REMARK CNNaffinity 6.82037115
REMARK  8 active torsions:
REMARK  status: ('A' for Active; 'I' for Inactive)
REMARK    1  A    between atoms: C2_2  and  C3_3 
REMARK    2  A    between atoms: C2_2  and  C5_6 
REMARK    3  A    between atoms: C3_3  and  C4_4 
REMARK    4  A    between atoms: C5_6  and  C6_7 
REMARK    5  A    between atoms: C6_7  and  C7_9 
REMARK    6  A    between atoms: C7_9  and  C8_10 
REMARK    7  A    between atoms: C8_10  and  C10_12 
REMARK    8  A    between atoms: C12_14  and  O3_15 
ROOT
HETATM    1  C10 UNL     1      -4.477  50.206 -21.900  1.00  0.00     0.002 C 
HETATM    2  C11 UNL     1      -4.120  50.712 -20.490  1.00  0.00     0.038 C 
HETATM    3  C12 UNL     1      -3.269  49.626 -19.847  1.00  0.00     0.132 C 
HETATM    4  C13 UNL     1      -3.734  48.286 -20.502  1.00  0.00     0.021 C 
HETATM    5  C14 UNL     1      -2.680  47.180 -20.291  1.00  0.00     0.024 C 
HETATM    6  C15 UNL     1      -5.108  47.803 -19.972  1.00  0.00     0.010 C 
HETATM    7  C16 UNL     1      -6.218  47.547 -20.708  1.00  0.00     0.007 C 
HETATM    8  C17 UNL     1      -6.077  47.617 -22.204  1.00  0.00     0.157 C 
HETATM    9  O4  UNL     1      -7.048  47.492 -22.947  1.00  0.00    -0.293 OA
HETATM   10  C18 UNL     1      -4.707  47.788 -22.803  1.00  0.00     0.094 C 
HETATM   11  C19 UNL     1      -3.829  48.767 -22.015  1.00  0.00    -0.019 C 
HETATM   12  C20 UNL     1      -2.457  48.787 -22.730  1.00  0.00     0.017 C 
HETATM   13  C21 UNL     1      -7.629  47.210 -20.141  1.00  0.00    -0.007 C 
HETATM   14  C22 UNL     1      -8.494  48.479 -20.361  1.00  0.00     0.021 C 
HETATM   15  C23 UNL     1      -8.299  46.007 -20.879  1.00  0.00     0.022 C 
HETATM   16  C24 UNL     1      -9.294  45.189 -20.053  1.00  0.00     0.080 C 
HETATM   17  C25 UNL     1      -9.891  45.981 -18.915  1.00  0.00     0.135 C 
HETATM   18  O5  UNL     1     -11.111  46.073 -18.780  1.00  0.00    -0.297 OA
HETATM   19  C26 UNL     1      -8.905  46.577 -17.904  1.00  0.00     0.018 C 
HETATM   20  C27 UNL     1      -9.505  47.839 -17.255  1.00  0.00     0.023 C 
HETATM   21  C28 UNL     1      -8.729  45.525 -16.788  1.00  0.00     0.023 C 
HETATM   22  C29 UNL     1      -7.537  46.816 -18.623  1.00  0.00     0.021 C 
HETATM   23  C30 UNL     1      -6.603  47.770 -17.884  1.00  0.00     0.090 C 
HETATM   24  C31 UNL     1      -5.244  47.566 -18.492  1.00  0.00     0.157 C 
HETATM   25  O6  UNL     1      -4.322  47.126 -17.811  1.00  0.00    -0.293 OA
ENDROOT
BRANCH   1  26
HETATM   26  C8  UNL     1      -4.279  51.306 -22.982  1.00  0.00    -0.007 C 
HETATM   27  C9  UNL     1      -5.559  51.585 -23.776  1.00  0.00     0.011 C 
BRANCH  26  28
HETATM   28  C7  UNL     1      -3.080  51.113 -23.929  1.00  0.00     0.083 C 
BRANCH  28  29
HETATM   29  C6  UNL     1      -2.098  52.266 -23.817  1.00  0.00     0.127 C 
HETATM   30  O2  UNL     1      -1.875  52.988 -24.789  1.00  0.00    -0.298 OA
BRANCH  29  31
HETATM   31  C5  UNL     1      -1.456  52.498 -22.456  1.00  0.00     0.082 C 
BRANCH  31  32
HETATM   32  C2  UNL     1      -0.101  51.814 -22.183  1.00  0.00    -0.005 C 
HETATM   33  C1  UNL     1      -0.105  50.875 -20.975  1.00  0.00     0.011 C 
BRANCH  32  34
HETATM   34  C3  UNL     1       1.092  52.781 -22.167  1.00  0.00     0.074 C 
BRANCH  34  35
HETATM   35  C4  UNL     1       1.576  53.159 -20.792  1.00  0.00     0.231 C 
HETATM   36  O1  UNL     1       1.678  54.329 -20.434  1.00  0.00    -0.307 OA
ENDBRANCH  34  35
ENDBRANCH  32  34
ENDBRANCH  31  32
ENDBRANCH  29  31
ENDBRANCH  28  29
ENDBRANCH  26  28
ENDBRANCH   1  26
BRANCH   3  37
HETATM   37  O3  UNL     1      -3.389  49.689 -18.442  1.00  0.00    -0.394 OA
HETATM   38  H20 UNL     1      -3.003  50.528 -18.142  1.00  0.00     0.210 HD
ENDBRANCH   3  37
TORSDOF 8
ENDMDL
