MODEL 1
REMARK minimizedAffinity -7.99347496
REMARK CNNscore 0.522721946
REMARK CNNaffinity 6.64226866
REMARK  7 active torsions:
REMARK  status: ('A' for Active; 'I' for Inactive)
REMARK    1  A    between atoms: C2_2  and  C30_34 
REMARK    2  A    between atoms: C3_3  and  C4_4 
REMARK    3  A    between atoms: C4_4  and  C5_5 
REMARK    4  A    between atoms: C5_5  and  C6_6 
REMARK    5  A    between atoms: C6_6  and  C8_8 
REMARK    6  A    between atoms: C15_16  and  O2_17 
REMARK    7  A    between atoms: C30_34  and  O6_36 
ROOT
HETATM    1  C8  UNL     1       7.198  10.363  15.335  1.00  0.00     0.006 C 
HETATM    2  C9  UNL     1       8.288  10.136  14.260  1.00  0.00     0.085 C 
HETATM    3  C10 UNL     1       7.485   9.911  12.980  1.00  0.00     0.141 C 
HETATM    4  O1  UNL     1       8.008   9.543  11.940  1.00  0.00    -0.297 OA
HETATM    5  C11 UNL     1       5.989  10.180  13.212  1.00  0.00     0.055 C 
HETATM    6  C12 UNL     1       5.790  11.706  13.017  1.00  0.00     0.030 C 
HETATM    7  C13 UNL     1       4.905   9.482  12.432  1.00  0.00     0.010 C 
HETATM    8  C14 UNL     1       3.707   9.138  12.971  1.00  0.00    -0.032 C 
HETATM    9  C15 UNL     1       3.423   9.501  14.445  1.00  0.00     0.149 C 
HETATM   10  C16 UNL     1       4.601  10.044  15.297  1.00  0.00     0.047 C 
HETATM   11  C17 UNL     1       5.956   9.658  14.703  1.00  0.00    -0.018 C 
HETATM   12  C18 UNL     1       6.108   8.105  14.821  1.00  0.00     0.017 C 
HETATM   13  C19 UNL     1       2.606   8.333  12.177  1.00  0.00    -0.012 C 
HETATM   14  C20 UNL     1       1.247   9.050  12.348  1.00  0.00     0.021 C 
HETATM   15  C21 UNL     1       2.545   6.915  12.808  1.00  0.00     0.021 C 
HETATM   16  C22 UNL     1       1.604   5.955  12.104  1.00  0.00     0.080 C 
HETATM   17  C23 UNL     1       1.990   5.801  10.657  1.00  0.00     0.135 C 
HETATM   18  O3  UNL     1       2.103   4.676  10.164  1.00  0.00    -0.297 OA
HETATM   19  C24 UNL     1       2.113   7.079   9.820  1.00  0.00     0.018 C 
HETATM   20  C25 UNL     1       2.793   6.719   8.475  1.00  0.00     0.023 C 
HETATM   21  C26 UNL     1       0.685   7.534   9.449  1.00  0.00     0.023 C 
HETATM   22  C27 UNL     1       2.922   8.188  10.619  1.00  0.00     0.020 C 
HETATM   23  C28 UNL     1       4.442   8.025  10.422  1.00  0.00     0.090 C 
HETATM   24  C29 UNL     1       5.117   9.233  10.992  1.00  0.00     0.157 C 
HETATM   25  O4  UNL     1       5.746  10.018  10.292  1.00  0.00    -0.293 OA
ENDROOT
BRANCH   1  26
HETATM   26  C6  UNL     1       7.557   9.981  16.800  1.00  0.00    -0.013 C 
HETATM   27  C7  UNL     1       8.964   9.414  17.022  1.00  0.00     0.010 C 
BRANCH  26  28
HETATM   28  C5  UNL     1       7.294  11.157  17.779  1.00  0.00     0.008 C 
BRANCH  28  29
HETATM   29  C4  UNL     1       8.506  11.623  18.589  1.00  0.00     0.028 C 
BRANCH  29  30
HETATM   30  C3  UNL     1       8.158  11.781  20.045  1.00  0.00    -0.013 C 
HETATM   31  C2  UNL     1       9.003  12.148  21.032  1.00  0.00     0.008 C 
HETATM   32  C1  UNL     1      10.474  12.380  20.839  1.00  0.00     0.055 C 
BRANCH  31  33
HETATM   33  C30 UNL     1       8.521  12.327  22.427  1.00  0.00     0.171 C 
HETATM   34  O5  UNL     1       7.414  12.026  22.836  1.00  0.00    -0.646 OA
BRANCH  33  35
HETATM   35  O6  UNL     1       9.431  12.869  23.254  1.00  0.00    -0.773 OA
HETATM   36  H42 UNL     1       8.962  12.909  24.113  1.00  0.00     0.167 HD
ENDBRANCH  33  35
ENDBRANCH  31  33
ENDBRANCH  29  30
ENDBRANCH  28  29
ENDBRANCH  26  28
ENDBRANCH   1  26
BRANCH   9  37
HETATM   37  O2  UNL     1       2.413  10.505  14.474  1.00  0.00    -0.391 OA
HETATM   38  H20 UNL     1       2.145  10.630  15.400  1.00  0.00     0.210 HD
ENDBRANCH   9  37
TORSDOF 7
ENDMDL
