MODEL 1
REMARK minimizedAffinity -10.692564
REMARK  7 active torsions:
REMARK  status: ('A' for Active; 'I' for Inactive)
REMARK    1  A    between atoms: C3_3  and  C4_4 
REMARK    2  A    between atoms: C4_4  and  O1_5 
REMARK    3  A    between atoms: C6_9  and  C7_10 
REMARK    4  A    between atoms: C7_10  and  C9_12 
REMARK    5  A    between atoms: C9_12  and  O4_13 
REMARK    6  A    between atoms: C10_14  and  O5_15 
REMARK    7  A    between atoms: C17_22  and  O6_23 
ROOT
HETATM    1  C9  UNL     1       6.233  64.123 -35.547  1.00  0.00     0.097 C 
HETATM    2  C10 UNL     1       5.325  63.969 -34.259  1.00  0.00     0.154 C 
HETATM    3  C11 UNL     1       4.071  64.835 -34.470  1.00  0.00     0.040 C 
HETATM    4  C12 UNL     1       4.185  65.336 -35.903  1.00  0.00     0.004 C 
HETATM    5  C13 UNL     1       3.345  66.564 -36.291  1.00  0.00    -0.001 C 
HETATM    6  C14 UNL     1       1.861  66.313 -36.003  1.00  0.00     0.033 C 
HETATM    7  C15 UNL     1       0.965  67.338 -36.615  1.00  0.00    -0.019 C 
HETATM    8  C16 UNL     1       1.331  68.191 -37.591  1.00  0.00    -0.035 C 
HETATM    9  C17 UNL     1       0.318  69.175 -38.133  1.00  0.00     0.171 C 
HETATM   10  C18 UNL     1       0.410  69.366 -39.608  1.00  0.00     0.013 C 
HETATM   11  C19 UNL     1       1.379  68.865 -40.382  1.00  0.00     0.050 C 
HETATM   12  C20 UNL     1       2.513  68.112 -39.785  1.00  0.00     0.162 C 
HETATM   13  O7  UNL     1       3.270  67.534 -40.563  1.00  0.00    -0.292 OA
HETATM   14  C21 UNL     1       2.727  68.166 -38.247  1.00  0.00     0.051 C 
HETATM   15  C22 UNL     1       3.483  69.473 -37.927  1.00  0.00     0.029 C 
HETATM   16  C23 UNL     1       3.556  66.891 -37.798  1.00  0.00     0.011 C 
HETATM   17  C24 UNL     1       5.069  66.956 -38.141  1.00  0.00     0.007 C 
HETATM   18  C25 UNL     1       5.872  65.737 -37.649  1.00  0.00     0.013 C 
HETATM   19  C26 UNL     1       5.714  65.504 -36.128  1.00  0.00    -0.006 C 
HETATM   20  C27 UNL     1       6.302  66.703 -35.336  1.00  0.00     0.019 C 
ENDROOT
BRANCH   1  21
HETATM   21  C7  UNL     1       7.779  63.945 -35.278  1.00  0.00     0.049 C 
HETATM   22  C8  UNL     1       8.638  64.774 -36.249  1.00  0.00     0.016 C 
BRANCH  21  23
HETATM   23  C6  UNL     1       8.250  62.446 -35.378  1.00  0.00     0.143 C 
HETATM   24  O3  UNL     1       8.183  61.774 -34.106  1.00  0.00    -0.311 OA
HETATM   25  C5  UNL     1       9.195  61.899 -33.206  1.00  0.00     0.292 C 
HETATM   26  C3  UNL     1      10.490  62.478 -33.674  1.00  0.00     0.042 C 
HETATM   27  O2  UNL     1       9.018  61.576 -32.035  1.00  0.00    -0.260 OA
HETATM   28  C2  UNL     1      10.707  62.619 -35.002  1.00  0.00    -0.067 C 
HETATM   29  C1  UNL     1      11.958  63.182 -35.615  1.00  0.00     0.044 C 
HETATM   30  C28 UNL     1       9.640  62.195 -35.970  1.00  0.00     0.067 C 
BRANCH  26  31
HETATM   31  C4  UNL     1      11.429  62.770 -32.531  1.00  0.00     0.209 C 
BRANCH  31  32
HETATM   32  O1  UNL     1      10.925  63.752 -31.635  1.00  0.00    -0.396 OA
HETATM   33  H6  UNL     1      11.636  63.942 -30.999  1.00  0.00     0.209 HD
ENDBRANCH  31  32
ENDBRANCH  26  31
ENDBRANCH  21  23
ENDBRANCH   1  21
BRANCH   1  34
HETATM   34  O4  UNL     1       5.845  63.099 -36.489  1.00  0.00    -0.386 OA
HETATM   35  H12 UNL     1       5.788  62.253 -36.009  1.00  0.00     0.210 HD
ENDBRANCH   1  34
BRANCH   2  36
HETATM   36  O5  UNL     1       5.967  64.427 -33.073  1.00  0.00    -0.392 OA
HETATM   37  H14 UNL     1       5.587  63.909 -32.334  1.00  0.00     0.210 HD
ENDBRANCH   2  36
BRANCH   9  38
HETATM   38  O6  UNL     1       0.508  70.442 -37.528  1.00  0.00    -0.387 OA
HETATM   39  H23 UNL     1       0.628  70.281 -36.577  1.00  0.00     0.210 HD
ENDBRANCH   9  38
TORSDOF 7
ENDMDL
