MODEL 1
REMARK minimizedAffinity -7.43070936
REMARK CNNscore 0.396998197
REMARK CNNaffinity 6.63522148
REMARK  13 active torsions:
REMARK  status: ('A' for Active; 'I' for Inactive)
REMARK    1  A    between atoms: C3_3  and  O1_4 
REMARK    2  A    between atoms: N1_14  and  O2_16 
REMARK    3  A    between atoms: O2_16  and  C13_17 
REMARK    4  A    between atoms: C13_17  and  C14_18 
REMARK       I    between atoms: C14_18  and  N2_20 
REMARK    5  A    between atoms: N2_20  and  C15_21 
REMARK    6  A    between atoms: C15_21  and  C16_22 
REMARK    7  A    between atoms: C15_21  and  C21_32 
REMARK       I    between atoms: C16_22  and  N3_24 
REMARK    8  A    between atoms: N3_24  and  C17_25 
REMARK    9  A    between atoms: C17_25  and  C18_26 
REMARK   10  A    between atoms: C17_25  and  C19_28 
REMARK   11  A    between atoms: C18_26  and  S1_27 
REMARK   12  A    between atoms: C19_28  and  C20_29 
REMARK   13  A    between atoms: C20_29  and  O6_31 
ROOT
HETATM    1  C1  UNL     1      -4.037  49.207 -23.380  1.00  0.00     0.015 C 
HETATM    2  C2  UNL     1      -3.844  49.001 -22.210  1.00  0.00    -0.078 C 
HETATM    3  C3  UNL     1      -3.622  48.703 -20.784  1.00  0.00     0.128 C 
HETATM    4  C4  UNL     1      -3.613  47.187 -20.530  1.00  0.00     0.052 C 
HETATM    5  C5  UNL     1      -3.038  47.082 -19.126  1.00  0.00     0.010 C 
HETATM    6  C6  UNL     1      -1.910  48.130 -19.107  1.00  0.00     0.002 C 
HETATM    7  C7  UNL     1      -1.533  48.694 -17.719  1.00  0.00    -0.004 C 
HETATM    8  C8  UNL     1      -2.699  49.035 -16.769  1.00  0.00     0.010 C 
HETATM    9  C9  UNL     1      -2.558  50.326 -15.955  1.00  0.00     0.035 C 
HETATM   10  C10 UNL     1      -1.166  50.772 -15.579  1.00  0.00    -0.069 C 
HETATM   11  C11 UNL     1      -0.990  51.609 -14.542  1.00  0.00     0.030 C 
HETATM   12  C12 UNL     1       0.346  52.194 -14.218  1.00  0.00     0.032 C 
HETATM   13  N1  UNL     1       0.643  52.816 -13.114  1.00  0.00    -0.271 N 
ATOM     14  H1  UNL     1       1.540  53.267 -12.931  1.00  0.00     0.194 HD
HETATM   15  C24 UNL     1       1.459  52.059 -15.244  1.00  0.00     0.060 C 
HETATM   16  C25 UNL     1       0.984  51.519 -16.593  1.00  0.00     0.020 C 
HETATM   17  C26 UNL     1      -0.007  50.332 -16.461  1.00  0.00    -0.016 C 
HETATM   18  C27 UNL     1       0.714  49.150 -15.754  1.00  0.00     0.020 C 
HETATM   19  C28 UNL     1      -0.528  49.862 -17.868  1.00  0.00     0.002 C 
HETATM   20  C29 UNL     1      -1.088  50.998 -18.765  1.00  0.00     0.007 C 
HETATM   21  C30 UNL     1      -2.307  50.615 -19.613  1.00  0.00     0.014 C 
HETATM   22  C31 UNL     1      -2.246  49.192 -20.206  1.00  0.00     0.003 C 
HETATM   23  C32 UNL     1      -1.123  49.152 -21.278  1.00  0.00     0.020 C 
ENDROOT
BRANCH   3  24
HETATM   24  O1  UNL     1      -4.708  49.265 -20.037  1.00  0.00    -0.377 OA
HETATM   25  H2  UNL     1      -5.531  48.929 -20.435  1.00  0.00     0.211 HD
ENDBRANCH   3  24
BRANCH  13  26
HETATM   26  O2  UNL     1      -0.428  52.789 -12.207  1.00  0.00    -0.271 OA
BRANCH  26  27
HETATM   27  C13 UNL     1      -0.153  53.675 -11.124  1.00  0.00     0.303 C 
BRANCH  27  28
HETATM   28  C14 UNL     1       1.249  53.328 -10.659  1.00  0.00     0.244 C 
HETATM   29  O3  UNL     1       1.679  52.180 -10.624  1.00  0.00    -0.271 OA
HETATM   30  N2  UNL     1       1.972  54.425 -10.236  1.00  0.00    -0.346 N 
HETATM   31  H16 UNL     1       1.509  55.331 -10.225  1.00  0.00     0.163 HD
BRANCH  30  32
HETATM   32  C15 UNL     1       3.272  54.322  -9.562  1.00  0.00     0.180 C 
BRANCH  32  33
HETATM   33  C16 UNL     1       3.000  54.135  -8.047  1.00  0.00     0.241 C 
HETATM   34  O4  UNL     1       3.659  53.396  -7.319  1.00  0.00    -0.271 OA
HETATM   35  N3  UNL     1       1.872  54.816  -7.611  1.00  0.00    -0.353 N 
HETATM   36  H18 UNL     1       1.451  55.415  -8.314  1.00  0.00     0.163 HD
BRANCH  35  37
HETATM   37  C17 UNL     1       1.683  55.178  -6.207  1.00  0.00     0.103 C 
BRANCH  37  38
HETATM   38  C18 UNL     1       0.564  54.307  -5.596  1.00  0.00     0.096 C 
BRANCH  38  39
HETATM   39  S1  UNL     1      -0.530  53.528  -6.819  1.00  0.00    -0.180 SA
HETATM   40  H22 UNL     1       0.343  52.604  -7.256  1.00  0.00     0.101 HD
ENDBRANCH  38  39
ENDBRANCH  37  38
BRANCH  37  41
HETATM   41  C19 UNL     1       1.465  56.696  -6.084  1.00  0.00     0.136 C 
BRANCH  41  42
HETATM   42  C20 UNL     1       0.018  57.081  -6.215  1.00  0.00     0.141 C 
HETATM   43  O5  UNL     1      -0.746  57.316  -5.292  1.00  0.00    -0.650 OA
BRANCH  42  44
HETATM   44  O6  UNL     1      -0.396  57.139  -7.498  1.00  0.00    -0.776 OA
HETATM   45  H25 UNL     1      -1.373  57.302  -7.435  1.00  0.00     0.167 HD
ENDBRANCH  42  44
ENDBRANCH  41  42
ENDBRANCH  37  41
ENDBRANCH  35  37
ENDBRANCH  32  33
BRANCH  32  46
HETATM   46  C21 UNL     1       4.184  55.530  -9.857  1.00  0.00     0.009 C 
HETATM   47  C22 UNL     1       4.052  55.975 -11.317  1.00  0.00     0.012 C 
HETATM   48  C23 UNL     1       3.927  56.722  -8.924  1.00  0.00     0.012 C 
ENDBRANCH  32  46
ENDBRANCH  30  32
ENDBRANCH  27  28
ENDBRANCH  26  27
ENDBRANCH  13  26
TORSDOF 13
ENDMDL
