MODEL 1
REMARK minimizedAffinity -8.93544579
REMARK CNNscore 0.547907054
REMARK CNNaffinity 7.06688499
REMARK  13 active torsions:
REMARK  status: ('A' for Active; 'I' for Inactive)
REMARK    1  A    between atoms: C2_2  and  C3_3 
REMARK    2  A    between atoms: C3_3  and  C4_4 
REMARK    3  A    between atoms: C6_7  and  C7_8 
REMARK    4  A    between atoms: C7_8  and  O2_9 
REMARK    5  A    between atoms: C7_8  and  C8_10 
REMARK    6  A    between atoms: C8_10  and  O3_12 
REMARK    7  A    between atoms: C8_10  and  C10_13 
REMARK    8  A    between atoms: C13_16  and  O4_17 
REMARK    9  A    between atoms: C19_24  and  O6_25 
REMARK   10  A    between atoms: O6_25  and  C20_26 
REMARK   11  A    between atoms: C20_26  and  C21_27 
REMARK   12  A    between atoms: C21_27  and  C22_28 
REMARK   13  A    between atoms: C22_28  and  O7_29 
ROOT
HETATM    1  C10 UNL     1       0.802   7.784  13.572  1.00  0.00     0.034 C 
HETATM    2  C11 UNL     1       1.028   8.684  14.832  1.00  0.00     0.012 C 
HETATM    3  C12 UNL     1      -0.343   8.884  15.512  1.00  0.00     0.044 C 
HETATM    4  C13 UNL     1      -1.242   7.841  14.846  1.00  0.00     0.089 C 
HETATM    5  C14 UNL     1      -2.750   7.922  14.888  1.00  0.00    -0.037 C 
HETATM    6  C15 UNL     1      -3.423   8.964  15.399  1.00  0.00     0.057 C 
HETATM    7  C16 UNL     1      -4.887   9.089  15.230  1.00  0.00     0.154 C 
HETATM    8  O5  UNL     1      -5.452  10.031  15.780  1.00  0.00    -0.293 OA
HETATM    9  C17 UNL     1      -5.609   8.102  14.310  1.00  0.00     0.071 C 
HETATM   10  C18 UNL     1      -7.112   8.101  14.620  1.00  0.00     0.045 C 
HETATM   11  C19 UNL     1      -7.433   7.505  15.997  1.00  0.00     0.122 C 
HETATM   12  C24 UNL     1      -6.795   6.127  16.175  1.00  0.00     0.033 C 
HETATM   13  C25 UNL     1      -5.309   6.098  15.816  1.00  0.00     0.013 C 
HETATM   14  C26 UNL     1      -4.994   6.684  14.402  1.00  0.00    -0.026 C 
HETATM   15  C27 UNL     1      -5.634   5.750  13.341  1.00  0.00     0.016 C 
HETATM   16  C28 UNL     1      -3.433   6.741  14.195  1.00  0.00     0.026 C 
HETATM   17  C29 UNL     1      -2.955   6.706  12.723  1.00  0.00     0.011 C 
HETATM   18  C30 UNL     1      -1.418   6.729  12.574  1.00  0.00     0.014 C 
HETATM   19  C31 UNL     1      -0.751   7.888  13.356  1.00  0.00    -0.002 C 
HETATM   20  C32 UNL     1      -1.129   9.225  12.652  1.00  0.00     0.019 C 
ENDROOT
BRANCH   1  21
HETATM   21  C8  UNL     1       1.811   8.092  12.406  1.00  0.00     0.087 C 
HETATM   22  C9  UNL     1       3.061   8.777  13.000  1.00  0.00     0.049 C 
BRANCH  21  23
HETATM   23  C7  UNL     1       2.221   6.803  11.629  1.00  0.00     0.181 C 
BRANCH  23  24
HETATM   24  C6  UNL     1       1.964   6.851  10.104  1.00  0.00     0.157 C 
HETATM   25  O1  UNL     1       0.988   7.854   9.775  1.00  0.00    -0.382 OA
HETATM   26  C5  UNL     1       1.205   8.275   8.418  1.00  0.00     0.173 C 
HETATM   27  C4  UNL     1       2.482   7.602   7.907  1.00  0.00     0.016 C 
HETATM   28  C33 UNL     1       3.173   7.184   9.211  1.00  0.00     0.019 C 
HETATM   29  C34 UNL     1       4.066   8.321   9.717  1.00  0.00     0.013 C 
BRANCH  27  30
HETATM   30  C3  UNL     1       2.202   6.390   6.994  1.00  0.00     0.007 C 
BRANCH  30  31
HETATM   31  C2  UNL     1       3.005   5.150   7.403  1.00  0.00    -0.004 C 
HETATM   32  C1  UNL     1       3.357   4.286   6.204  1.00  0.00     0.005 C 
ENDBRANCH  30  31
ENDBRANCH  27  30
ENDBRANCH  23  24
BRANCH  23  33
HETATM   33  O2  UNL     1       3.580   6.479  11.934  1.00  0.00    -0.390 OA
HETATM   34  H13 UNL     1       3.965   6.024  11.160  1.00  0.00     0.210 HD
ENDBRANCH  23  33
ENDBRANCH  21  23
BRANCH  21  35
HETATM   35  O3  UNL     1       1.212   8.993  11.463  1.00  0.00    -0.387 OA
HETATM   36  H17 UNL     1       1.350   9.905  11.781  1.00  0.00     0.210 HD
ENDBRANCH  21  35
ENDBRANCH   1  21
BRANCH   4  37
HETATM   37  O4  UNL     1      -0.919   6.619  15.531  1.00  0.00    -0.384 OA
HETATM   38  H23 UNL     1      -0.652   5.944  14.891  1.00  0.00     0.211 HD
ENDBRANCH   4  37
BRANCH  11  39
HETATM   39  O6  UNL     1      -8.844   7.315  16.127  1.00  0.00    -0.386 OA
BRANCH  39  40
HETATM   40  C20 UNL     1      -9.460   6.761  14.962  1.00  0.00     0.170 C 
BRANCH  40  41
HETATM   41  C21 UNL     1     -10.629   7.651  14.547  1.00  0.00     0.052 C 
BRANCH  41  42
HETATM   42  C22 UNL     1     -11.101   7.378  13.113  1.00  0.00     0.169 C 
BRANCH  42  43
HETATM   43  O7  UNL     1     -12.515   7.287  12.955  1.00  0.00    -0.396 OA
HETATM   44  C23 UNL     1     -13.221   8.301  13.658  1.00  0.00     0.201 C 
ENDBRANCH  42  43
ENDBRANCH  41  42
ENDBRANCH  40  41
ENDBRANCH  39  40
ENDBRANCH  11  39
TORSDOF 13
ENDMDL
