MODEL 1
REMARK minimizedAffinity -6.31757975
REMARK CNNscore 0.466065973
REMARK CNNaffinity 5.70060539
REMARK  8 active torsions:
REMARK  status: ('A' for Active; 'I' for Inactive)
REMARK    1  A    between atoms: C5_5  and  C6_6 
REMARK    2  A    between atoms: C6_6  and  O1_9 
REMARK    3  A    between atoms: C14_16  and  C15_17 
REMARK    4  A    between atoms: C16_19  and  O4_20 
REMARK    5  A    between atoms: C17_21  and  C18_22 
REMARK    6  A    between atoms: C19_24  and  O6_25 
REMARK    7  A    between atoms: C21_27  and  C22_28 
REMARK    8  A    between atoms: C22_28  and  C23_29 
ROOT
HETATM    1  C1  UNL     1       3.263  56.563 -11.463  1.00  0.00     0.019 C 
HETATM    2  C2  UNL     1       2.878  55.590 -10.615  1.00  0.00    -0.068 C 
HETATM    3  C3  UNL     1       1.448  55.345 -10.471  1.00  0.00     0.003 C 
HETATM    4  C4  UNL     1       0.700  54.795  -9.496  1.00  0.00    -0.019 C 
HETATM    5  C5  UNL     1       1.091  54.201  -8.154  1.00  0.00     0.042 C 
HETATM    6  C9  UNL     1       1.158  55.285  -7.037  1.00  0.00     0.014 C 
HETATM    7  C10 UNL     1       1.901  56.595  -7.363  1.00  0.00     0.039 C 
HETATM    8  C11 UNL     1       3.439  56.679  -7.114  1.00  0.00     0.068 C 
HETATM    9  C12 UNL     1       3.901  57.967  -7.855  1.00  0.00     0.047 C 
HETATM   10  O2  UNL     1       3.565  56.944  -5.675  1.00  0.00    -0.338 OA
HETATM   11  C13 UNL     1       4.880  57.160  -5.316  1.00  0.00     0.095 A 
HETATM   12  C14 UNL     1       5.224  58.290  -4.573  1.00  0.00     0.070 A 
HETATM   13  C16 UNL     1       6.577  58.567  -4.339  1.00  0.00     0.097 A 
HETATM   14  C17 UNL     1       7.558  57.717  -4.864  1.00  0.00     0.069 A 
HETATM   15  C19 UNL     1       7.190  56.558  -5.580  1.00  0.00     0.091 A 
HETATM   16  C20 UNL     1       5.844  56.237  -5.764  1.00  0.00     0.015 A 
HETATM   17  C21 UNL     1       5.241  54.979  -6.349  1.00  0.00     0.031 C 
HETATM   18  C26 UNL     1       4.244  55.377  -7.494  1.00  0.00     0.029 C 
HETATM   19  C27 UNL     1       4.849  55.349  -8.921  1.00  0.00     0.013 C 
HETATM   20  C28 UNL     1       3.944  54.711 -10.001  1.00  0.00     0.038 C 
ENDROOT
BRANCH   5  21
HETATM   21  C6  UNL     1       0.205  52.961  -7.747  1.00  0.00     0.057 C 
HETATM   22  C7  UNL     1      -1.267  53.368  -7.565  1.00  0.00     0.046 C 
HETATM   23  C8  UNL     1       0.282  51.772  -8.716  1.00  0.00     0.046 C 
BRANCH  21  24
HETATM   24  O1  UNL     1       0.661  52.503  -6.462  1.00  0.00    -0.390 OA
HETATM   25  H12 UNL     1       0.118  51.742  -6.197  1.00  0.00     0.210 HD
ENDBRANCH  21  24
ENDBRANCH   5  21
BRANCH  17  26
HETATM   26  C22 UNL     1       6.089  53.717  -6.656  1.00  0.00     0.014 C 
BRANCH  26  27
HETATM   27  C23 UNL     1       7.043  53.792  -7.877  1.00  0.00    -0.022 C 
HETATM   28  C24 UNL     1       7.023  55.177  -8.536  1.00  0.00     0.009 C 
HETATM   29  C25 UNL     1       6.823  52.710  -8.928  1.00  0.00     0.009 C 
ENDBRANCH  26  27
ENDBRANCH  17  26
BRANCH  12  30
HETATM   30  C15 UNL     1       4.165  59.186  -4.077  1.00  0.00     0.275 C 
HETATM   31  O3  UNL     1       2.986  58.944  -4.324  1.00  0.00    -0.301 OA
ENDBRANCH  12  30
BRANCH  13  32
HETATM   32  O4  UNL     1       6.972  59.673  -3.627  1.00  0.00    -0.359 OA
HETATM   33  H21 UNL     1       6.168  60.168  -3.339  1.00  0.00     0.217 HD
ENDBRANCH  13  32
BRANCH  15  34
HETATM   34  O6  UNL     1       8.137  55.739  -6.128  1.00  0.00    -0.359 OA
HETATM   35  H23 UNL     1       9.032  56.097  -5.924  1.00  0.00     0.217 HD
ENDBRANCH  15  34
BRANCH  14  36
HETATM   36  C18 UNL     1       8.983  58.051  -4.653  1.00  0.00     0.275 C 
HETATM   37  O5  UNL     1       9.765  57.206  -4.224  1.00  0.00    -0.301 OA
ENDBRANCH  14  36
TORSDOF 8
ENDMDL
