MODEL 1
REMARK minimizedAffinity -9.7937994
REMARK  7 active torsions:
REMARK  status: ('A' for Active; 'I' for Inactive)
REMARK    1  A    between atoms: C2_2  and  O2_4 
REMARK    2  A    between atoms: O2_4  and  C3_5 
REMARK    3  A    between atoms: C3_5  and  C4_6 
REMARK    4  A    between atoms: C3_5  and  C9_12 
REMARK    5  A    between atoms: C5_7  and  C6_8 
REMARK    6  A    between atoms: C6_8  and  O3_11 
REMARK    7  A    between atoms: C9_12  and  C11_14 
ROOT
HETATM    1  C11 UNL     1      -1.379  50.706 -22.816  1.00  0.00     0.001 C 
HETATM    2  C12 UNL     1      -1.066  52.231 -22.805  1.00  0.00     0.007 C 
HETATM    3  C13 UNL     1      -0.526  52.596 -21.411  1.00  0.00     0.015 C 
HETATM    4  C14 UNL     1      -0.222  51.248 -20.743  1.00  0.00    -0.013 C 
HETATM    5  C15 UNL     1       1.198  50.806 -21.221  1.00  0.00     0.021 C 
HETATM    6  C16 UNL     1      -0.166  51.188 -19.221  1.00  0.00    -0.068 C 
HETATM    7  C17 UNL     1      -0.493  50.051 -18.559  1.00  0.00    -0.068 C 
HETATM    8  C18 UNL     1      -0.944  48.802 -19.335  1.00  0.00     0.036 C 
HETATM    9  C19 UNL     1      -1.130  48.929 -20.866  1.00  0.00     0.015 C 
HETATM   10  C20 UNL     1      -1.418  50.376 -21.286  1.00  0.00    -0.029 C 
HETATM   11  C21 UNL     1      -2.806  50.800 -20.709  1.00  0.00     0.016 C 
HETATM   12  C22 UNL     1      -0.507  49.959 -17.004  1.00  0.00    -0.015 C 
HETATM   13  C23 UNL     1      -1.980  49.702 -16.577  1.00  0.00     0.020 C 
HETATM   14  C24 UNL     1       0.394  48.794 -16.533  1.00  0.00     0.021 C 
HETATM   15  C25 UNL     1       0.315  48.526 -15.034  1.00  0.00     0.080 C 
HETATM   16  C26 UNL     1       0.092  49.779 -14.219  1.00  0.00     0.135 C 
HETATM   17  O4  UNL     1      -0.369  49.696 -13.080  1.00  0.00    -0.297 OA
HETATM   18  C27 UNL     1       0.542  51.111 -14.826  1.00  0.00     0.018 C 
HETATM   19  C28 UNL     1       0.016  52.272 -13.952  1.00  0.00     0.023 C 
HETATM   20  C29 UNL     1       2.084  51.119 -14.717  1.00  0.00     0.023 C 
HETATM   21  C30 UNL     1      -0.028  51.288 -16.289  1.00  0.00     0.013 C 
HETATM   22  C31 UNL     1       0.939  52.096 -17.170  1.00  0.00     0.011 C 
HETATM   23  C32 UNL     1       0.320  52.422 -18.517  1.00  0.00     0.036 C 
ENDROOT
BRANCH   1  24
HETATM   24  C9  UNL     1      -2.604  50.338 -23.720  1.00  0.00     0.020 C 
HETATM   25  C10 UNL     1      -2.933  48.840 -23.627  1.00  0.00     0.013 C 
BRANCH  24  26
HETATM   26  C3  UNL     1      -2.433  50.693 -25.236  1.00  0.00     0.158 C 
BRANCH  26  27
HETATM   27  O2  UNL     1      -2.355  49.492 -26.027  1.00  0.00    -0.312 OA
BRANCH  27  28
HETATM   28  C2  UNL     1      -3.161  49.419 -27.121  1.00  0.00     0.255 C 
HETATM   29  C1  UNL     1      -4.215  48.376 -26.906  1.00  0.00     0.126 C 
HETATM   30  O1  UNL     1      -3.082  50.114 -28.124  1.00  0.00    -0.266 OA
ENDBRANCH  27  28
ENDBRANCH  26  27
BRANCH  26  31
HETATM   31  C4  UNL     1      -1.185  51.482 -25.551  1.00  0.00     0.005 C 
HETATM   32  C5  UNL     1      -0.158  51.008 -26.277  1.00  0.00     0.008 C 
BRANCH  32  33
HETATM   33  C6  UNL     1       1.123  51.725 -26.640  1.00  0.00     0.068 C 
HETATM   34  C7  UNL     1       1.178  51.957 -28.152  1.00  0.00     0.050 C 
HETATM   35  C8  UNL     1       2.416  51.048 -26.171  1.00  0.00     0.050 C 
BRANCH  33  36
HETATM   36  O3  UNL     1       1.054  53.008 -26.011  1.00  0.00    -0.387 OA
HETATM   37  H13 UNL     1       0.943  52.850 -25.057  1.00  0.00     0.211 HD
ENDBRANCH  33  36
ENDBRANCH  32  33
ENDBRANCH  26  31
ENDBRANCH  24  26
ENDBRANCH   1  24
TORSDOF 7
ENDMDL
