MODEL 1
REMARK minimizedAffinity -10.1778851
REMARK CNNscore 0.130402878
REMARK CNNaffinity 6.41411448
REMARK  11 active torsions:
REMARK  status: ('A' for Active; 'I' for Inactive)
REMARK    1  A    between atoms: C13_13  and  S1_14 
REMARK    2  A    between atoms: C25_30  and  O5_31 
REMARK    3  A    between atoms: C31_37  and  C32_38 
REMARK    4  A    between atoms: C32_38  and  O6_39 
REMARK    5  A    between atoms: C40_47  and  C41_48 
REMARK    6  A    between atoms: C40_47  and  N1_63 
REMARK    7  A    between atoms: C41_48  and  C42_49 
REMARK    8  A    between atoms: C42_49  and  C43_50 
REMARK    9  A    between atoms: C42_49  and  C50_57 
REMARK   10  A    between atoms: C43_50  and  C44_51 
REMARK   11  A    between atoms: C50_57  and  O7_58 
REMARK       I    between atoms: C55_65  and  N2_66 
REMARK       I    between atoms: C55_65  and  N3_67 
ROOT
HETATM    1  C1  UNL     1     -10.240  39.031 -26.368  1.00  0.00     0.010 C 
HETATM    2  C2  UNL     1     -11.327  39.782 -25.599  1.00  0.00    -0.010 C 
HETATM    3  C3  UNL     1     -10.720  40.613 -24.474  1.00  0.00     0.009 C 
HETATM    4  C4  UNL     1     -11.770  41.355 -23.646  1.00  0.00     0.039 C 
HETATM    5  C5  UNL     1     -12.994  41.826 -24.391  1.00  0.00    -0.049 C 
HETATM    6  C6  UNL     1     -13.851  42.753 -23.773  1.00  0.00     0.044 C 
HETATM    7  C7  UNL     1     -15.014  43.190 -24.409  1.00  0.00     0.073 C 
HETATM    8  C8  UNL     1     -15.417  42.568 -25.586  1.00  0.00     0.037 C 
HETATM    9  C9  UNL     1     -14.554  41.684 -26.235  1.00  0.00     0.011 C 
HETATM   10  C10 UNL     1     -13.306  41.362 -25.678  1.00  0.00    -0.047 C 
HETATM   11  C11 UNL     1     -12.281  40.607 -26.500  1.00  0.00     0.024 C 
HETATM   12  C12 UNL     1     -11.664  41.439 -27.684  1.00  0.00     0.033 C 
HETATM   13  C13 UNL     1     -11.591  43.008 -27.630  1.00  0.00     0.139 C 
HETATM   14  C14 UNL     1     -11.708  43.630 -29.087  1.00  0.00     0.037 C 
HETATM   15  C15 UNL     1     -10.421  43.775 -29.910  1.00  0.00    -0.014 C 
HETATM   16  C16 UNL     1     -10.344  44.615 -30.966  1.00  0.00    -0.050 C 
HETATM   17  C17 UNL     1     -11.596  45.310 -31.425  1.00  0.00     0.042 C 
HETATM   18  C18 UNL     1     -12.177  46.029 -30.204  1.00  0.00    -0.001 C 
HETATM   19  C19 UNL     1     -11.208  47.064 -29.537  1.00  0.00     0.038 C 
HETATM   20  C20 UNL     1      -9.924  47.439 -30.328  1.00  0.00     0.130 C 
HETATM   21  O4  UNL     1      -9.008  46.345 -30.284  1.00  0.00    -0.371 OA
HETATM   22  C21 UNL     1      -9.108  45.390 -31.342  1.00  0.00     0.185 C 
HETATM   23  C22 UNL     1      -7.738  44.755 -31.553  1.00  0.00    -0.006 A 
HETATM   24  C23 UNL     1      -7.566  43.371 -31.709  1.00  0.00     0.014 A 
HETATM   25  C24 UNL     1      -6.298  42.833 -31.953  1.00  0.00     0.037 A 
HETATM   26  C25 UNL     1      -5.197  43.676 -32.072  1.00  0.00     0.067 A 
HETATM   27  C26 UNL     1      -5.332  45.053 -31.953  1.00  0.00     0.057 A 
HETATM   28  C27 UNL     1      -6.591  45.597 -31.693  1.00  0.00     0.029 A 
HETATM   29  C28 UNL     1      -6.723  47.021 -31.530  1.00  0.00    -0.066 C 
HETATM   30  C29 UNL     1      -7.159  48.102 -31.230  1.00  0.00    -0.101 C 
HETATM   31  C30 UNL     1      -8.039  49.175 -30.725  1.00  0.00     0.103 C 
HETATM   32  C31 UNL     1      -9.152  48.660 -29.747  1.00  0.00     0.049 C 
HETATM   33  C33 UNL     1     -12.701  44.891 -29.267  1.00  0.00     0.033 C 
HETATM   34  C34 UNL     1     -13.613  45.355 -28.138  1.00  0.00     0.073 A 
HETATM   35  C35 UNL     1     -15.004  45.259 -28.309  1.00  0.00     0.007 C 
HETATM   36  C36 UNL     1     -15.875  45.378 -27.227  1.00  0.00     0.010 C 
HETATM   37  C37 UNL     1     -15.377  45.573 -25.930  1.00  0.00    -0.005 C 
HETATM   38  C38 UNL     1     -14.006  45.860 -25.795  1.00  0.00     0.012 C 
HETATM   39  C39 UNL     1     -13.140  45.777 -26.893  1.00  0.00     0.133 A 
HETATM   40  C40 UNL     1     -16.265  45.283 -24.689  1.00  0.00     0.171 C 
HETATM   41  O8  UNL     1     -15.649  44.257 -23.827  1.00  0.00    -0.316 OA
HETATM   42 NA1  UNL     1     -13.155  45.483 -26.801  1.00  0.00    -0.397 Na
ATOM     43  HA1 UNL     1     -12.972  44.909 -25.978  1.00  0.00     0.155 HD
ENDROOT
BRANCH  40  44
HETATM   44  C41 UNL     1     -16.300  46.560 -23.771  1.00  0.00     0.075 C 
BRANCH  44  45
HETATM   45  C42 UNL     1     -15.682  46.485 -22.338  1.00  0.00     0.029 C 
BRANCH  45  46
HETATM   46  C43 UNL     1     -14.780  47.686 -21.928  1.00  0.00     0.046 C 
BRANCH  46  47
HETATM   47  C44 UNL     1     -13.383  47.437 -21.397  1.00  0.00    -0.058 A 
HETATM   48  C45 UNL     1     -12.467  46.699 -22.164  1.00  0.00     0.007 A 
HETATM   49  C46 UNL     1     -11.176  46.442 -21.696  1.00  0.00     0.001 A 
HETATM   50  C47 UNL     1     -10.776  46.930 -20.456  1.00  0.00     0.000 A 
HETATM   51  C48 UNL     1     -11.660  47.692 -19.698  1.00  0.00     0.001 A 
HETATM   52  C49 UNL     1     -12.950  47.948 -20.169  1.00  0.00     0.007 A 
ENDBRANCH  46  47
ENDBRANCH  45  46
BRANCH  45  53
HETATM   53  C50 UNL     1     -16.763  46.105 -21.276  1.00  0.00     0.062 C 
HETATM   54  C51 UNL     1     -16.600  46.875 -19.953  1.00  0.00     0.038 C 
HETATM   55  C52 UNL     1     -17.974  46.834 -19.277  1.00  0.00     0.003 C 
HETATM   56  C53 UNL     1     -18.970  46.409 -20.350  1.00  0.00     0.003 C 
HETATM   57  C54 UNL     1     -18.201  46.475 -21.664  1.00  0.00     0.038 C 
BRANCH  53  58
HETATM   58  O7  UNL     1     -16.692  44.714 -20.953  1.00  0.00    -0.389 OA
HETATM   59  H50 UNL     1     -17.056  44.212 -21.705  1.00  0.00     0.210 HD
ENDBRANCH  53  58
ENDBRANCH  45  53
ENDBRANCH  44  45
ENDBRANCH  40  44
BRANCH  40  60
HETATM   60  N1  UNL     1     -17.667  45.012 -25.080  1.00  0.00    -0.336 N 
HETATM   61  C55 UNL     1     -18.529  45.944 -25.197  1.00  0.00     0.124 C 
HETATM   62  N2  UNL     1     -19.783  45.645 -25.598  1.00  0.00    -0.279 NA
HETATM   63  N3  UNL     1     -18.434  47.273 -24.989  1.00  0.00    -0.279 NA
HETATM   64  H59 UNL     1     -20.482  46.126 -25.045  1.00  0.00     0.126 HD
HETATM   65  H60 UNL     1     -19.929  44.641 -25.581  1.00  0.00     0.126 HD
HETATM   66  H61 UNL     1     -17.489  47.573 -24.755  1.00  0.00     0.126 HD
HETATM   67  H62 UNL     1     -18.818  47.825 -25.745  1.00  0.00     0.126 HD
ATOM     68  H1  UNL     1     -17.952  44.050 -25.262  1.00  0.00     0.165 HD
ENDBRANCH  40  60
BRANCH  13  69
HETATM   69  S1  UNL     1     -10.148  43.611 -26.704  1.00  0.00     0.106 S 
HETATM   70  O1  UNL     1     -10.636  43.909 -25.361  1.00  0.00    -0.595 OA
HETATM   71  O2  UNL     1      -9.711  44.786 -27.456  1.00  0.00    -0.595 OA
HETATM   72  O3  UNL     1      -9.208  42.495 -26.715  1.00  0.00    -0.595 OA
ENDBRANCH  13  69
BRANCH  32  73
HETATM   73  C32 UNL     1      -8.557  48.353 -28.365  1.00  0.00     0.172 C 
BRANCH  73  74
HETATM   74  O6  UNL     1      -9.131  49.229 -27.389  1.00  0.00    -0.400 OA
HETATM   75  H34 UNL     1      -8.711  48.968 -26.549  1.00  0.00     0.209 HD
ENDBRANCH  73  74
ENDBRANCH  32  73
BRANCH  26  76
HETATM   76  O5  UNL     1      -3.947  43.173 -32.302  1.00  0.00    -0.361 OA
HETATM   77  H27 UNL     1      -3.986  42.213 -32.160  1.00  0.00     0.217 HD
ENDBRANCH  26  76
TORSDOF 11
ENDMDL
