MODEL 1
REMARK minimizedAffinity -7.70459223
REMARK CNNscore 0.383800119
REMARK CNNaffinity 7.49122858
REMARK  10 active torsions:
REMARK  status: ('A' for Active; 'I' for Inactive)
REMARK       I    between atoms: N1_1  and  C1_2 
REMARK       I    between atoms: C1_2  and  N2_3 
REMARK    1  A    between atoms: N3_4  and  C2_6 
REMARK    2  A    between atoms: C2_6  and  C3_7 
REMARK    3  A    between atoms: C3_7  and  C4_8 
REMARK    4  A    between atoms: C4_8  and  C5_9 
REMARK    5  A    between atoms: C5_9  and  O1_10 
REMARK    6  A    between atoms: C18_24  and  S1_25 
REMARK    7  A    between atoms: C27_37  and  C28_38 
REMARK    8  A    between atoms: C28_38  and  O6_39 
REMARK    9  A    between atoms: C34_45  and  O7_46 
REMARK   10  A    between atoms: C45_58  and  NA1_59 
ROOT
HETATM    1  C2  UNL     1      -3.559  16.172   1.914  1.00  0.00     0.170 C 
HETATM    2  O2  UNL     1      -3.397  14.755   1.501  1.00  0.00    -0.316 OA
HETATM    3  C10 UNL     1      -2.107  14.279   1.522  1.00  0.00     0.072 C 
HETATM    4  C11 UNL     1      -1.032  14.946   0.944  1.00  0.00     0.037 C 
HETATM    5  C12 UNL     1       0.255  14.670   1.393  1.00  0.00     0.010 C 
HETATM    6  C13 UNL     1       0.454  13.714   2.398  1.00  0.00    -0.058 C 
HETATM    7  C14 UNL     1      -0.604  12.868   2.765  1.00  0.00     0.010 C 
HETATM    8  C15 UNL     1      -1.891  13.152   2.316  1.00  0.00     0.037 C 
HETATM    9  C16 UNL     1       1.626  13.924   3.358  1.00  0.00     0.040 C 
HETATM   10  C17 UNL     1       1.092  14.961   4.372  1.00  0.00     0.028 C 
HETATM   11  C18 UNL     1       1.995  15.508   5.486  1.00  0.00     0.139 C 
HETATM   12  C19 UNL     1       1.138  15.900   6.745  1.00  0.00     0.038 C 
HETATM   13  C20 UNL     1       1.935  16.199   8.005  1.00  0.00    -0.014 C 
HETATM   14  C21 UNL     1       1.978  17.456   8.487  1.00  0.00    -0.050 C 
HETATM   15  C22 UNL     1       1.492  18.584   7.637  1.00  0.00     0.042 C 
HETATM   16  C23 UNL     1       0.043  18.284   7.354  1.00  0.00     0.001 C 
HETATM   17  C24 UNL     1      -0.744  18.504   8.684  1.00  0.00     0.037 C 
HETATM   18  C25 UNL     1      -0.308  17.707   9.969  1.00  0.00     0.123 C 
HETATM   19  C26 UNL     1      -1.460  17.919  10.995  1.00  0.00     0.039 C 
HETATM   20  C27 UNL     1      -1.297  17.352  12.429  1.00  0.00     0.023 C 
HETATM   21  C29 UNL     1      -1.030  15.834  12.462  1.00  0.00     0.101 C 
HETATM   22  C30 UNL     1       0.387  15.589  12.234  1.00  0.00    -0.101 C 
HETATM   23  C31 UNL     1       1.553  15.645  11.968  1.00  0.00    -0.066 C 
HETATM   24  C32 UNL     1       2.894  15.924  11.589  1.00  0.00     0.029 A 
HETATM   25  C33 UNL     1       3.914  15.147  12.160  1.00  0.00     0.057 A 
HETATM   26  C34 UNL     1       5.241  15.350  11.798  1.00  0.00     0.067 A 
HETATM   27  C35 UNL     1       5.574  16.325  10.871  1.00  0.00     0.037 A 
HETATM   28  C36 UNL     1       4.562  17.110  10.315  1.00  0.00     0.014 A 
HETATM   29  C37 UNL     1       3.197  16.932  10.659  1.00  0.00    -0.006 A 
HETATM   30  C38 UNL     1       2.192  17.832   9.923  1.00  0.00     0.185 C 
HETATM   31  O8  UNL     1       0.929  18.148  10.577  1.00  0.00    -0.371 OA
HETATM   32  C39 UNL     1      -0.162  16.842   6.743  1.00  0.00     0.030 C 
HETATM   33  C40 UNL     1      -1.113  16.783   5.548  1.00  0.00    -0.054 A 
HETATM   34  C41 UNL     1      -2.102  15.788   5.492  1.00  0.00     0.141 A 
HETATM   35  C42 UNL     1      -2.908  15.630   4.358  1.00  0.00     0.014 A 
HETATM   36  C43 UNL     1      -2.761  16.455   3.227  1.00  0.00    -0.005 A 
HETATM   37  C44 UNL     1      -1.803  17.482   3.309  1.00  0.00     0.007 A 
HETATM   38  C45 UNL     1      -1.002  17.652   4.453  1.00  0.00     0.086 A 
ENDROOT
BRANCH   1  39
HETATM   39  N3  UNL     1      -3.178  17.108   0.849  1.00  0.00    -0.336 N 
HETATM   40  C1  UNL     1      -3.344  17.125  -0.400  1.00  0.00     0.124 C 
HETATM   41  N1  UNL     1      -2.919  18.217  -1.084  1.00  0.00    -0.279 NA
HETATM   42  N2  UNL     1      -3.817  16.232  -1.295  1.00  0.00    -0.279 NA
HETATM   43  H1  UNL     1      -2.407  18.825  -0.451  1.00  0.00     0.126 HD
HETATM   44  H2  UNL     1      -2.333  17.961  -1.868  1.00  0.00     0.126 HD
HETATM   45  H3  UNL     1      -4.268  15.405  -0.940  1.00  0.00     0.126 HD
HETATM   46  H4  UNL     1      -4.326  16.654  -2.060  1.00  0.00     0.126 HD
ATOM     47  H3  UNL     1      -2.669  17.921   1.194  1.00  0.00     0.165 HD
ENDBRANCH   1  39
BRANCH   1  48
HETATM   48  C3  UNL     1      -5.082  16.253   2.261  1.00  0.00     0.070 C 
BRANCH  48  49
HETATM   49  C4  UNL     1      -6.107  15.490   1.393  1.00  0.00     0.043 C 
BRANCH  49  50
HETATM   50  C5  UNL     1      -7.606  15.653   1.709  1.00  0.00     0.058 C 
HETATM   51  C6  UNL     1      -8.430  14.352   1.639  1.00  0.00     0.038 C 
HETATM   52  C7  UNL     1      -9.337  14.333   2.880  1.00  0.00     0.003 C 
HETATM   53  C8  UNL     1      -9.230  15.723   3.484  1.00  0.00     0.003 C 
HETATM   54  C9  UNL     1      -7.797  16.115   3.167  1.00  0.00     0.038 C 
BRANCH  50  55
HETATM   55  O1  UNL     1      -8.178  16.667   0.887  1.00  0.00    -0.390 OA
HETATM   56  H9  UNL     1      -8.643  16.226   0.150  1.00  0.00     0.210 HD
ENDBRANCH  50  55
ENDBRANCH  49  50
ENDBRANCH  48  49
ENDBRANCH   1  48
BRANCH  38  57
HETATM   57 NA1  UNL     1      -1.077  16.859   6.221  1.00  0.00    -0.383 Na
ATOM     58 2HA1 UNL     1      -0.137  16.706   6.586  1.00  0.00     0.091 HD
ATOM     59 1HA1 UNL     1      -1.418  17.536   6.904  1.00  0.00     0.091 HD
ENDBRANCH  38  57
BRANCH  11  60
HETATM   60  S1  UNL     1       3.107  16.775   4.853  1.00  0.00     0.106 S 
HETATM   61  O3  UNL     1       2.245  17.920   4.580  1.00  0.00    -0.595 OA
HETATM   62  O4  UNL     1       4.087  16.981   5.916  1.00  0.00    -0.595 OA
HETATM   63  O5  UNL     1       3.682  16.171   3.650  1.00  0.00    -0.595 OA
ENDBRANCH  11  60
BRANCH  20  64
HETATM   64  C28 UNL     1      -2.551  17.682  13.262  1.00  0.00     0.169 C 
BRANCH  64  65
HETATM   65  O6  UNL     1      -3.662  16.864  12.925  1.00  0.00    -0.400 OA
HETATM   66  H40 UNL     1      -3.437  15.943  13.121  1.00  0.00     0.209 HD
ENDBRANCH  64  65
ENDBRANCH  20  64
BRANCH  26  67
HETATM   67  O7  UNL     1       6.190  14.551  12.362  1.00  0.00    -0.361 OA
HETATM   68  H44 UNL     1       7.039  14.749  11.926  1.00  0.00     0.217 HD
ENDBRANCH  26  67
TORSDOF 10
ENDMDL
