MODEL 1
REMARK minimizedAffinity -8.46653652
REMARK CNNscore 0.667021453
REMARK CNNaffinity 6.97617579
REMARK  10 active torsions:
REMARK  status: ('A' for Active; 'I' for Inactive)
REMARK    1  A    between atoms: C3_3  and  C4_4 
REMARK    2  A    between atoms: C4_4  and  O1_5 
REMARK    3  A    between atoms: C5_6  and  C6_7 
REMARK    4  A    between atoms: C6_7  and  O2_8 
REMARK    5  A    between atoms: C6_7  and  C7_9 
REMARK    6  A    between atoms: C7_9  and  O3_11 
REMARK    7  A    between atoms: C7_9  and  C9_12 
REMARK    8  A    between atoms: C16_20  and  C17_21 
REMARK    9  A    between atoms: C39_46  and  C40_47 
REMARK   10  A    between atoms: C40_47  and  O8_48 
ROOT
HETATM    1  C9  UNL     1       5.808  48.970  -8.221  1.00  0.00     0.034 C 
HETATM    2  C10 UNL     1       4.557  48.741  -7.326  1.00  0.00     0.012 C 
HETATM    3  C11 UNL     1       3.989  50.135  -6.999  1.00  0.00     0.044 C 
HETATM    4  C12 UNL     1       4.537  51.044  -8.117  1.00  0.00     0.093 C 
HETATM    5  O4  UNL     1       3.947  50.740  -9.405  1.00  0.00    -0.363 OA
HETATM    6  C13 UNL     1       2.546  50.500  -9.540  1.00  0.00     0.263 C 
HETATM    7  C14 UNL     1       1.807  51.672 -10.018  1.00  0.00    -0.080 C 
HETATM    8  C15 UNL     1       1.135  52.567 -10.467  1.00  0.00    -0.093 C 
HETATM    9  C16 UNL     1       0.316  53.653 -11.059  1.00  0.00     0.121 C 
HETATM   10  C23 UNL     1       0.597  55.024 -10.399  1.00  0.00     0.190 C 
HETATM   11  O5  UNL     1       1.808  55.636 -10.872  1.00  0.00    -0.384 OA
HETATM   12  C24 UNL     1       2.974  55.249 -10.146  1.00  0.00     0.122 C 
HETATM   13  C25 UNL     1       4.208  55.515 -11.013  1.00  0.00     0.033 C 
HETATM   14  C26 UNL     1       5.514  55.602 -10.210  1.00  0.00     0.013 C 
HETATM   15  C27 UNL     1       5.468  54.883  -8.829  1.00  0.00    -0.026 C 
HETATM   16  C28 UNL     1       6.778  55.249  -8.075  1.00  0.00     0.016 C 
HETATM   17  C29 UNL     1       4.302  55.513  -8.004  1.00  0.00     0.071 C 
HETATM   18  C30 UNL     1       3.094  55.994  -8.823  1.00  0.00     0.045 C 
HETATM   19  C31 UNL     1       3.830  54.641  -6.858  1.00  0.00     0.154 C 
HETATM   20  O6  UNL     1       3.313  55.120  -5.850  1.00  0.00    -0.293 OA
HETATM   21  C32 UNL     1       3.904  53.175  -6.972  1.00  0.00     0.057 C 
HETATM   22  C33 UNL     1       4.552  52.559  -7.971  1.00  0.00    -0.036 C 
HETATM   23  C34 UNL     1       5.333  53.312  -9.056  1.00  0.00     0.026 C 
HETATM   24  C35 UNL     1       6.707  52.645  -9.391  1.00  0.00     0.011 C 
HETATM   25  C36 UNL     1       6.700  51.111  -9.429  1.00  0.00     0.014 C 
HETATM   26  C37 UNL     1       6.031  50.526  -8.164  1.00  0.00    -0.002 C 
HETATM   27  C38 UNL     1       6.852  50.937  -6.912  1.00  0.00     0.019 C 
ENDROOT
BRANCH   1  28
HETATM   28  C7  UNL     1       7.012  47.978  -8.002  1.00  0.00     0.087 C 
HETATM   29  C8  UNL     1       6.576  46.537  -7.659  1.00  0.00     0.049 C 
BRANCH  28  30
HETATM   30  C6  UNL     1       7.948  47.994  -9.283  1.00  0.00     0.181 C 
BRANCH  30  31
HETATM   31  C5  UNL     1       9.470  48.108  -8.961  1.00  0.00     0.160 C 
HETATM   32  C3  UNL     1      10.469  47.438  -9.916  1.00  0.00     0.047 C 
HETATM   33  C2  UNL     1      10.670  46.066  -9.276  1.00  0.00     0.021 C 
HETATM   34  C1  UNL     1      11.965  45.358  -9.663  1.00  0.00     0.013 C 
HETATM   35  C39 UNL     1      10.624  46.419  -7.793  1.00  0.00     0.149 C 
HETATM   36  O7  UNL     1       9.751  47.566  -7.649  1.00  0.00    -0.375 OA
BRANCH  32  37
HETATM   37  C4  UNL     1      10.078  47.426 -11.388  1.00  0.00     0.172 C 
BRANCH  37  38
HETATM   38  O1  UNL     1       9.802  48.743 -11.848  1.00  0.00    -0.400 OA
HETATM   39  H8  UNL     1       9.031  49.078 -11.358  1.00  0.00     0.209 HD
ENDBRANCH  37  38
ENDBRANCH  32  37
BRANCH  35  40
HETATM   40  C40 UNL     1      10.101  45.286  -6.914  1.00  0.00     0.196 C 
BRANCH  40  41
HETATM   41  O8  UNL     1       9.335  45.828  -5.837  1.00  0.00    -0.398 OA
HETATM   42  H54 UNL     1       8.759  46.508  -6.243  1.00  0.00     0.209 HD
ENDBRANCH  40  41
ENDBRANCH  35  40
ENDBRANCH  30  31
BRANCH  30  43
HETATM   43  O2  UNL     1       7.690  46.867 -10.126  1.00  0.00    -0.390 OA
HETATM   44  H11 UNL     1       6.790  46.958 -10.484  1.00  0.00     0.210 HD
ENDBRANCH  30  43
ENDBRANCH  28  30
BRANCH  28  45
HETATM   45  O3  UNL     1       7.763  48.470  -6.884  1.00  0.00    -0.387 OA
HETATM   46  H15 UNL     1       8.446  47.801  -6.682  1.00  0.00     0.210 HD
ENDBRANCH  28  45
ENDBRANCH   1  28
BRANCH   9  47
HETATM   47  C17 UNL     1      -1.166  53.316 -10.968  1.00  0.00    -0.040 A 
HETATM   48  C18 UNL     1      -2.092  54.227 -10.431  1.00  0.00     0.008 A 
HETATM   49  C19 UNL     1      -3.449  53.913 -10.392  1.00  0.00     0.001 A 
HETATM   50  C20 UNL     1      -3.901  52.690 -10.878  1.00  0.00     0.000 A 
HETATM   51  C21 UNL     1      -2.994  51.776 -11.407  1.00  0.00     0.001 A 
HETATM   52  C22 UNL     1      -1.634  52.084 -11.452  1.00  0.00     0.008 A 
ENDBRANCH   9  47
TORSDOF 10
ENDMDL
