MODEL 1
REMARK minimizedAffinity -7.26179743
REMARK CNNscore 0.631084919
REMARK CNNaffinity 6.79188728
REMARK  10 active torsions:
REMARK  status: ('A' for Active; 'I' for Inactive)
REMARK    1  A    between atoms: C2_2  and  C3_3 
REMARK    2  A    between atoms: C2_2  and  C9_12 
REMARK    3  A    between atoms: C3_3  and  C4_4 
REMARK    4  A    between atoms: C4_4  and  C5_5 
REMARK    5  A    between atoms: C5_5  and  O1_6 
REMARK    6  A    between atoms: C5_5  and  C6_7 
REMARK    7  A    between atoms: C6_7  and  O2_9 
REMARK    8  A    between atoms: C6_7  and  C8_10 
REMARK    9  A    between atoms: C8_10  and  O3_11 
REMARK   10  A    between atoms: C16_19  and  O4_20 
ROOT
HETATM    1  C9  UNL     1     -11.526  14.521   2.117  1.00  0.00    -0.002 C 
HETATM    2  C10 UNL     1     -10.220  14.854   1.341  1.00  0.00     0.007 C 
HETATM    3  C11 UNL     1      -9.302  15.636   2.302  1.00  0.00     0.015 C 
HETATM    4  C12 UNL     1      -9.925  15.446   3.702  1.00  0.00    -0.005 C 
HETATM    5  C13 UNL     1      -9.423  14.069   4.236  1.00  0.00     0.021 C 
HETATM    6  C14 UNL     1      -9.635  16.434   4.830  1.00  0.00     0.002 C 
HETATM    7  C15 UNL     1     -10.542  16.669   5.817  1.00  0.00    -0.032 C 
HETATM    8  C16 UNL     1     -11.906  15.961   5.796  1.00  0.00     0.149 C 
HETATM    9  C17 UNL     1     -12.256  15.096   4.565  1.00  0.00     0.047 C 
HETATM   10  C18 UNL     1     -11.459  15.506   3.324  1.00  0.00    -0.026 C 
HETATM   11  C19 UNL     1     -11.922  16.925   2.871  1.00  0.00     0.016 C 
HETATM   12  C20 UNL     1     -10.301  17.735   6.934  1.00  0.00    -0.012 C 
HETATM   13  C21 UNL     1     -10.933  19.041   6.393  1.00  0.00     0.021 C 
HETATM   14  C22 UNL     1     -10.977  17.363   8.280  1.00  0.00     0.021 C 
HETATM   15  C23 UNL     1     -10.655  18.315   9.420  1.00  0.00     0.080 C 
HETATM   16  C24 UNL     1      -9.167  18.375   9.646  1.00  0.00     0.135 C 
HETATM   17  O5  UNL     1      -8.717  18.274  10.789  1.00  0.00    -0.297 OA
HETATM   18  C25 UNL     1      -8.277  18.673   8.430  1.00  0.00     0.018 C 
HETATM   19  C26 UNL     1      -6.827  18.265   8.798  1.00  0.00     0.023 C 
HETATM   20  C27 UNL     1      -8.268  20.193   8.212  1.00  0.00     0.023 C 
HETATM   21  C28 UNL     1      -8.758  17.822   7.201  1.00  0.00     0.020 C 
HETATM   22  C29 UNL     1      -8.016  18.154   5.904  1.00  0.00     0.090 C 
HETATM   23  C30 UNL     1      -8.306  17.128   4.836  1.00  0.00     0.157 C 
HETATM   24  O6  UNL     1      -7.460  16.887   3.974  1.00  0.00    -0.293 OA
ENDROOT
BRANCH   1  25
HETATM   25  C2  UNL     1     -12.769  14.512   1.186  1.00  0.00    -0.014 C 
HETATM   26  C1  UNL     1     -14.074  14.125   1.891  1.00  0.00     0.010 C 
BRANCH  25  27
HETATM   27  C3  UNL     1     -12.562  13.656  -0.096  1.00  0.00     0.007 C 
BRANCH  27  28
HETATM   28  C4  UNL     1     -12.870  12.145  -0.054  1.00  0.00     0.035 C 
BRANCH  28  29
HETATM   29  C5  UNL     1     -13.619  11.573  -1.262  1.00  0.00     0.154 C 
BRANCH  29  30
HETATM   30  O1  UNL     1     -12.788  11.637  -2.431  1.00  0.00    -0.392 OA
HETATM   31  H10 UNL     1     -11.949  11.193  -2.219  1.00  0.00     0.210 HD
ENDBRANCH  29  30
BRANCH  29  32
HETATM   32  C6  UNL     1     -14.200  10.132  -1.120  1.00  0.00     0.101 C 
HETATM   33  C7  UNL     1     -13.499   9.376   0.015  1.00  0.00     0.051 C 
BRANCH  32  34
HETATM   34  O2  UNL     1     -15.591  10.252  -0.741  1.00  0.00    -0.385 OA
HETATM   35  H14 UNL     1     -15.810  11.209  -0.770  1.00  0.00     0.210 HD
ENDBRANCH  32  34
BRANCH  32  36
HETATM   36  C8  UNL     1     -14.187   9.299  -2.415  1.00  0.00     0.204 C 
BRANCH  36  37
HETATM   37  O3  UNL     1     -12.966   8.607  -2.617  1.00  0.00    -0.398 OA
HETATM   38  H17 UNL     1     -13.069   8.075  -3.428  1.00  0.00     0.209 HD
ENDBRANCH  36  37
ENDBRANCH  32  36
ENDBRANCH  29  32
ENDBRANCH  28  29
ENDBRANCH  27  28
ENDBRANCH  25  27
ENDBRANCH   1  25
BRANCH   8  39
HETATM   39  O4  UNL     1     -12.015  15.113   6.933  1.00  0.00    -0.391 OA
HETATM   40  H27 UNL     1     -11.265  14.494   6.907  1.00  0.00     0.210 HD
ENDBRANCH   8  39
TORSDOF 10
ENDMDL
