MODEL 1
REMARK minimizedAffinity -9.38768291
REMARK  6 active torsions:
REMARK  status: ('A' for Active; 'I' for Inactive)
REMARK    1  A    between atoms: C2_2  and  C30_32 
REMARK    2  A    between atoms: C3_3  and  C4_4 
REMARK    3  A    between atoms: C4_4  and  C5_5 
REMARK    4  A    between atoms: C5_5  and  C6_6 
REMARK    5  A    between atoms: C6_6  and  C8_8 
REMARK    6  A    between atoms: C30_32  and  O3_33 
ROOT
HETATM    1  C8  UNL     1       0.234  52.007 -23.256  1.00  0.00    -0.002 C 
HETATM    2  C9  UNL     1       0.267  52.809 -21.925  1.00  0.00     0.007 C 
HETATM    3  C10 UNL     1      -0.981  52.396 -21.119  1.00  0.00     0.015 C 
HETATM    4  C11 UNL     1      -1.481  51.101 -21.792  1.00  0.00    -0.005 C 
HETATM    5  C12 UNL     1      -0.618  49.930 -21.228  1.00  0.00     0.021 C 
HETATM    6  C13 UNL     1      -2.918  50.636 -21.611  1.00  0.00    -0.000 C 
HETATM    7  C14 UNL     1      -3.550  49.898 -22.559  1.00  0.00    -0.060 C 
HETATM    8  C15 UNL     1      -2.853  49.596 -23.897  1.00  0.00     0.036 C 
HETATM    9  C16 UNL     1      -1.446  50.189 -24.131  1.00  0.00     0.015 C 
HETATM   10  C17 UNL     1      -1.224  51.464 -23.310  1.00  0.00    -0.028 C 
HETATM   11  C18 UNL     1      -2.193  52.558 -23.846  1.00  0.00     0.016 C 
HETATM   12  C19 UNL     1      -4.987  49.345 -22.399  1.00  0.00    -0.014 C 
HETATM   13  C20 UNL     1      -5.918  50.209 -23.295  1.00  0.00     0.020 C 
HETATM   14  C21 UNL     1      -5.063  47.873 -22.898  1.00  0.00     0.021 C 
HETATM   15  C22 UNL     1      -6.186  47.084 -22.249  1.00  0.00     0.080 C 
HETATM   16  C23 UNL     1      -5.882  46.931 -20.779  1.00  0.00     0.135 C 
HETATM   17  O1  UNL     1      -6.104  45.862 -20.212  1.00  0.00    -0.297 OA
HETATM   18  C24 UNL     1      -5.294  48.149 -20.042  1.00  0.00     0.018 C 
HETATM   19  C25 UNL     1      -3.822  47.837 -19.732  1.00  0.00     0.023 C 
HETATM   20  C26 UNL     1      -6.053  48.268 -18.700  1.00  0.00     0.023 C 
HETATM   21  C27 UNL     1      -5.529  49.434 -20.921  1.00  0.00     0.020 C 
HETATM   22  C28 UNL     1      -5.106  50.756 -20.275  1.00  0.00     0.090 C 
HETATM   23  C29 UNL     1      -3.619  50.970 -20.336  1.00  0.00     0.157 C 
HETATM   24  O2  UNL     1      -3.018  51.439 -19.375  1.00  0.00    -0.293 OA
ENDROOT
BRANCH   1  25
HETATM   25  C6  UNL     1       0.919  52.741 -24.449  1.00  0.00    -0.014 C 
HETATM   26  C7  UNL     1       0.168  53.942 -25.031  1.00  0.00     0.010 C 
BRANCH  25  27
HETATM   27  C5  UNL     1       1.343  51.743 -25.555  1.00  0.00     0.008 C 
BRANCH  27  28
HETATM   28  C4  UNL     1       0.691  51.979 -26.929  1.00  0.00     0.028 C 
BRANCH  28  29
HETATM   29  C3  UNL     1      -0.435  51.033 -27.240  1.00  0.00    -0.022 C 
HETATM   30  C2  UNL     1      -1.730  51.342 -27.478  1.00  0.00    -0.064 C 
HETATM   31  C1  UNL     1      -2.258  52.752 -27.498  1.00  0.00     0.045 C 
BRANCH  30  32
HETATM   32  C30 UNL     1      -2.802  50.300 -27.725  1.00  0.00     0.197 C 
BRANCH  32  33
HETATM   33  O3  UNL     1      -3.512  50.534 -28.933  1.00  0.00    -0.397 OA
HETATM   34  H46 UNL     1      -3.920  51.412 -28.839  1.00  0.00     0.209 HD
ENDBRANCH  32  33
ENDBRANCH  30  32
ENDBRANCH  28  29
ENDBRANCH  27  28
ENDBRANCH  25  27
ENDBRANCH   1  25
TORSDOF 6
ENDMDL
