MODEL 1
REMARK minimizedAffinity -9.07218456
REMARK  13 active torsions:
REMARK  status: ('A' for Active; 'I' for Inactive)
REMARK    1  A    between atoms: C4_4  and  C5_5 
REMARK    2  A    between atoms: C5_5  and  C6_6 
REMARK    3  A    between atoms: C6_6  and  C7_7 
REMARK    4  A    between atoms: C9_9  and  C10_10 
REMARK    5  A    between atoms: C11_11  and  C12_12 
REMARK    6  A    between atoms: C14_14  and  C15_15 
REMARK    7  A    between atoms: C18_18  and  O1_19 
REMARK    8  A    between atoms: C19_21  and  C20_22 
REMARK    9  A    between atoms: C20_22  and  C21_23 
REMARK   10  A    between atoms: C21_23  and  C22_24 
REMARK   11  A    between atoms: C22_24  and  O3_25 
REMARK   12  A    between atoms: C24_27  and  C26_29 
REMARK   13  A    between atoms: C29_33  and  O5_35 
ROOT
HETATM    1  C15 UNL     1      -0.724   5.414  12.951  1.00  0.00     0.149 C 
HETATM    2  C16 UNL     1       0.092   5.760  11.696  1.00  0.00     0.054 C 
HETATM    3  C17 UNL     1       0.974   6.984  12.077  1.00  0.00     0.050 C 
HETATM    4  C18 UNL     1       0.917   6.874  13.608  1.00  0.00     0.270 C 
HETATM    5  O2  UNL     1      -0.397   6.417  13.914  1.00  0.00    -0.351 OA
HETATM    6  C19 UNL     1       2.424   6.791  11.472  1.00  0.00     0.032 C 
HETATM    7  C23 UNL     1       2.341   6.884   9.934  1.00  0.00    -0.066 C 
HETATM    8  C24 UNL     1       2.727   5.918   9.061  1.00  0.00    -0.021 C 
HETATM    9  C25 UNL     1       2.544   6.027   7.569  1.00  0.00     0.052 C 
HETATM   10  C27 UNL     1       1.771   8.211   9.468  1.00  0.00     0.038 C 
HETATM   11  C28 UNL     1       0.378   8.456  10.036  1.00  0.00     0.042 C 
HETATM   12  C29 UNL     1       0.312   8.333  11.575  1.00  0.00     0.067 C 
HETATM   13  C30 UNL     1      -1.146   8.574  12.000  1.00  0.00     0.047 C 
ENDROOT
BRANCH   4  14
HETATM   14  O1  UNL     1       1.793   5.881  14.116  1.00  0.00    -0.370 OA
HETATM   15  H26 UNL     1       1.676   5.935  15.080  1.00  0.00     0.212 HD
ENDBRANCH   4  14
BRANCH   6  16
HETATM   16  C20 UNL     1       3.575   7.727  11.941  1.00  0.00     0.012 C 
BRANCH  16  17
HETATM   17  C21 UNL     1       4.912   7.657  11.192  1.00  0.00     0.027 C 
BRANCH  17  18
HETATM   18  C22 UNL     1       5.910   6.643  11.744  1.00  0.00     0.164 C 
BRANCH  18  19
HETATM   19  O3  UNL     1       6.656   6.062  10.684  1.00  0.00    -0.401 OA
HETATM   20  H34 UNL     1       7.319   5.477  11.091  1.00  0.00     0.209 HD
ENDBRANCH  18  19
ENDBRANCH  17  18
ENDBRANCH  16  17
ENDBRANCH   6  16
BRANCH  12  21
HETATM   21  O5  UNL     1       1.052   9.431  12.134  1.00  0.00    -0.389 OA
HETATM   22  H46 UNL     1       0.656  10.264  11.819  1.00  0.00     0.210 HD
ENDBRANCH  12  21
BRANCH   1  23
HETATM   23  C14 UNL     1      -2.206   5.306  12.691  1.00  0.00     0.011 C 
HETATM   24  C12 UNL     1      -2.938   4.281  12.201  1.00  0.00    -0.063 C 
HETATM   25  C13 UNL     1      -2.346   2.991  11.694  1.00  0.00     0.048 C 
BRANCH  24  26
HETATM   26  C11 UNL     1      -4.393   4.447  12.114  1.00  0.00     0.006 C 
HETATM   27  C10 UNL     1      -5.233   4.692  13.134  1.00  0.00     0.001 C 
BRANCH  27  28
HETATM   28  C9  UNL     1      -6.663   4.834  12.952  1.00  0.00     0.002 C 
HETATM   29  C7  UNL     1      -7.441   5.846  13.387  1.00  0.00    -0.084 C 
HETATM   30  C8  UNL     1      -6.970   7.032  14.189  1.00  0.00     0.043 C 
BRANCH  29  31
HETATM   31  C6  UNL     1      -8.937   5.821  13.109  1.00  0.00     0.037 C 
BRANCH  31  32
HETATM   32  C5  UNL     1      -9.717   6.846  13.939  1.00  0.00     0.031 C 
BRANCH  32  33
HETATM   33  C4  UNL     1     -11.203   6.662  13.781  1.00  0.00    -0.024 C 
HETATM   34  C2  UNL     1     -12.069   7.478  13.148  1.00  0.00    -0.091 C 
HETATM   35  C1  UNL     1     -11.707   8.786  12.498  1.00  0.00     0.042 C 
HETATM   36  C3  UNL     1     -13.531   7.127  13.060  1.00  0.00     0.042 C 
ENDBRANCH  32  33
ENDBRANCH  31  32
ENDBRANCH  29  31
ENDBRANCH  27  28
ENDBRANCH  24  26
ENDBRANCH   1  23
BRANCH   8  37
HETATM   37  C26 UNL     1       3.389   4.656   9.515  1.00  0.00     0.265 C 
HETATM   38  O4  UNL     1       4.590   4.444   9.377  1.00  0.00    -0.302 OA
ENDBRANCH   8  37
TORSDOF 13
ENDMDL
