MODEL 1
REMARK minimizedAffinity -9.25075054
REMARK  7 active torsions:
REMARK  status: ('A' for Active; 'I' for Inactive)
REMARK    1  A    between atoms: C2_2  and  C30_32 
REMARK    2  A    between atoms: C3_3  and  C4_4 
REMARK    3  A    between atoms: C4_4  and  C5_5 
REMARK    4  A    between atoms: C5_5  and  C6_6 
REMARK    5  A    between atoms: C6_6  and  C8_8 
REMARK    6  A    between atoms: C29_30  and  O2_31 
REMARK    7  A    between atoms: C30_32  and  O3_33 
ROOT
HETATM    1  C8  UNL     1      -0.739  52.046 -21.968  1.00  0.00    -0.002 C 
HETATM    2  C9  UNL     1      -0.548  51.790 -23.483  1.00  0.00     0.007 C 
HETATM    3  C10 UNL     1      -1.787  50.996 -23.959  1.00  0.00     0.015 C 
HETATM    4  C11 UNL     1      -2.809  51.093 -22.807  1.00  0.00    -0.010 C 
HETATM    5  C12 UNL     1      -3.561  52.453 -22.974  1.00  0.00     0.021 C 
HETATM    6  C13 UNL     1      -3.901  50.032 -22.662  1.00  0.00    -0.039 C 
HETATM    7  C14 UNL     1      -4.433  49.792 -21.430  1.00  0.00    -0.066 C 
HETATM    8  C15 UNL     1      -3.907  50.514 -20.173  1.00  0.00     0.036 C 
HETATM    9  C16 UNL     1      -2.647  51.394 -20.317  1.00  0.00     0.015 C 
HETATM   10  C17 UNL     1      -1.841  51.023 -21.567  1.00  0.00    -0.029 C 
HETATM   11  C18 UNL     1      -1.223  49.612 -21.344  1.00  0.00     0.016 C 
HETATM   12  C19 UNL     1      -5.577  48.763 -21.206  1.00  0.00    -0.015 C 
HETATM   13  C20 UNL     1      -4.950  47.535 -20.499  1.00  0.00     0.020 C 
HETATM   14  C21 UNL     1      -6.680  49.371 -20.289  1.00  0.00     0.021 C 
HETATM   15  C22 UNL     1      -8.075  48.768 -20.434  1.00  0.00     0.080 C 
HETATM   16  C23 UNL     1      -8.070  47.407 -21.085  1.00  0.00     0.135 C 
HETATM   17  O1  UNL     1      -8.656  46.460 -20.559  1.00  0.00    -0.297 OA
HETATM   18  C24 UNL     1      -7.389  47.295 -22.455  1.00  0.00     0.018 C 
HETATM   19  C25 UNL     1      -8.480  47.568 -23.514  1.00  0.00     0.023 C 
HETATM   20  C26 UNL     1      -6.894  45.851 -22.670  1.00  0.00     0.023 C 
HETATM   21  C27 UNL     1      -6.266  48.382 -22.566  1.00  0.00     0.016 C 
HETATM   22  C28 UNL     1      -5.211  48.072 -23.638  1.00  0.00     0.043 C 
HETATM   23  C29 UNL     1      -4.335  49.293 -23.908  1.00  0.00     0.148 C 
ENDROOT
BRANCH   1  24
HETATM   24  C6  UNL     1       0.556  52.133 -21.105  1.00  0.00    -0.014 C 
HETATM   25  C7  UNL     1       1.450  53.349 -21.381  1.00  0.00     0.010 C 
BRANCH  24  26
HETATM   26  C5  UNL     1       0.166  52.100 -19.600  1.00  0.00     0.008 C 
BRANCH  26  27
HETATM   27  C4  UNL     1       1.173  52.795 -18.677  1.00  0.00     0.028 C 
BRANCH  27  28
HETATM   28  C3  UNL     1       0.968  52.380 -17.246  1.00  0.00    -0.022 C 
HETATM   29  C2  UNL     1       1.901  52.295 -16.274  1.00  0.00    -0.064 C 
HETATM   30  C1  UNL     1       3.348  52.673 -16.448  1.00  0.00     0.045 C 
BRANCH  29  31
HETATM   31  C30 UNL     1       1.535  51.826 -14.890  1.00  0.00     0.197 C 
BRANCH  31  32
HETATM   32  O3  UNL     1       0.672  52.784 -14.295  1.00  0.00    -0.397 OA
HETATM   33  H48 UNL     1       0.434  52.437 -13.421  1.00  0.00     0.209 HD
ENDBRANCH  31  32
ENDBRANCH  29  31
ENDBRANCH  27  28
ENDBRANCH  26  27
ENDBRANCH  24  26
ENDBRANCH   1  24
BRANCH  23  34
HETATM   34  O2  UNL     1      -5.083  50.182 -24.734  1.00  0.00    -0.391 OA
HETATM   35  H45 UNL     1      -4.445  50.765 -25.174  1.00  0.00     0.210 HD
ENDBRANCH  23  34
TORSDOF 7
ENDMDL
