MODEL 1
REMARK minimizedAffinity -10.037117
REMARK CNNscore 0.775305033
REMARK CNNaffinity 6.61289263
REMARK  8 active torsions:
REMARK  status: ('A' for Active; 'I' for Inactive)
REMARK    1  A    between atoms: C3_3  and  C4_4 
REMARK    2  A    between atoms: C4_4  and  O1_5 
REMARK    3  A    between atoms: C6_9  and  C7_10 
REMARK    4  A    between atoms: C7_10  and  O4_12 
REMARK    5  A    between atoms: C7_10  and  C9_13 
REMARK    6  A    between atoms: C12_16  and  O5_17 
REMARK    7  A    between atoms: C15_20  and  O6_21 
REMARK    8  A    between atoms: C16_22  and  O7_23 
ROOT
HETATM    1  C9  UNL     1      -4.779   6.661  15.216  1.00  0.00     0.033 C 
HETATM    2  C10 UNL     1      -3.588   5.794  14.705  1.00  0.00     0.011 C 
HETATM    3  C11 UNL     1      -2.328   6.679  14.697  1.00  0.00     0.039 C 
HETATM    4  C12 UNL     1      -2.757   7.945  15.431  1.00  0.00     0.070 C 
HETATM    5  C13 UNL     1      -1.871   9.203  15.187  1.00  0.00     0.028 C 
HETATM    6  C14 UNL     1      -0.477   9.012  15.845  1.00  0.00     0.043 C 
HETATM    7  C15 UNL     1       0.316  10.281  16.139  1.00  0.00     0.154 C 
HETATM    8  C16 UNL     1      -0.582  11.361  16.794  1.00  0.00     0.098 C 
HETATM    9  C17 UNL     1       0.266  12.573  17.242  1.00  0.00     0.042 C 
HETATM   10  C18 UNL     1      -0.558  13.810  17.624  1.00  0.00     0.010 C 
HETATM   11  C19 UNL     1      -2.044  13.542  17.776  1.00  0.00     0.079 C 
HETATM   12  C20 UNL     1      -2.576  12.908  16.509  1.00  0.00     0.138 C 
HETATM   13  O8  UNL     1      -3.621  13.328  16.004  1.00  0.00    -0.297 OA
HETATM   14  C21 UNL     1      -1.760  11.763  15.862  1.00  0.00     0.054 C 
HETATM   15  C22 UNL     1      -1.274  12.384  14.515  1.00  0.00     0.027 C 
HETATM   16  C23 UNL     1      -2.669  10.524  15.525  1.00  0.00     0.011 C 
HETATM   17  C24 UNL     1      -3.868  10.253  16.466  1.00  0.00     0.007 C 
HETATM   18  C25 UNL     1      -4.865   9.207  15.907  1.00  0.00     0.013 C 
HETATM   19  C26 UNL     1      -4.235   8.126  14.993  1.00  0.00    -0.006 C 
HETATM   20  C27 UNL     1      -4.381   8.534  13.503  1.00  0.00     0.019 C 
ENDROOT
BRANCH   1  21
HETATM   21  C7  UNL     1      -6.187   6.223  14.669  1.00  0.00     0.085 C 
HETATM   22  C8  UNL     1      -7.031   5.599  15.795  1.00  0.00     0.049 C 
BRANCH  21  23
HETATM   23  C6  UNL     1      -6.036   5.181  13.487  1.00  0.00     0.170 C 
HETATM   24  O3  UNL     1      -7.010   4.122  13.635  1.00  0.00    -0.309 OA
HETATM   25  C5  UNL     1      -7.023   3.062  12.793  1.00  0.00     0.292 C 
HETATM   26  C3  UNL     1      -5.793   2.829  11.986  1.00  0.00     0.042 C 
HETATM   27  O2  UNL     1      -7.991   2.314  12.733  1.00  0.00    -0.260 OA
HETATM   28  C2  UNL     1      -4.652   3.483  12.301  1.00  0.00    -0.067 C 
HETATM   29  C1  UNL     1      -3.316   3.249  11.651  1.00  0.00     0.044 C 
HETATM   30  C28 UNL     1      -4.653   4.531  13.389  1.00  0.00     0.070 C 
BRANCH  26  31
HETATM   31  C4  UNL     1      -5.903   1.750  10.943  1.00  0.00     0.209 C 
BRANCH  31  32
HETATM   32  O1  UNL     1      -5.802   2.290   9.626  1.00  0.00    -0.396 OA
HETATM   33  H6  UNL     1      -5.511   3.217   9.684  1.00  0.00     0.209 HD
ENDBRANCH  31  32
ENDBRANCH  26  31
ENDBRANCH  21  23
BRANCH  21  34
HETATM   34  O4  UNL     1      -6.885   7.380  14.185  1.00  0.00    -0.387 OA
HETATM   35  H11 UNL     1      -7.843   7.209  14.205  1.00  0.00     0.210 HD
ENDBRANCH  21  34
ENDBRANCH   1  21
BRANCH   4  36
HETATM   36  O5  UNL     1      -2.752   7.580  16.831  1.00  0.00    -0.389 OA
HETATM   37  H17 UNL     1      -2.381   8.302  17.368  1.00  0.00     0.210 HD
ENDBRANCH   4  36
BRANCH   7  38
HETATM   38  O6  UNL     1       0.979  10.742  14.965  1.00  0.00    -0.392 OA
HETATM   39  H22 UNL     1       1.431   9.979  14.563  1.00  0.00     0.210 HD
ENDBRANCH   7  38
BRANCH   8  40
HETATM   40  O7  UNL     1      -1.145  10.758  17.985  1.00  0.00    -0.386 OA
HETATM   41  H23 UNL     1      -0.445  10.672  18.653  1.00  0.00     0.210 HD
ENDBRANCH   8  40
TORSDOF 8
ENDMDL
