MODEL 1
REMARK minimizedAffinity -6.18896484
REMARK CNNscore 0.586560726
REMARK CNNaffinity 7.31554842
REMARK  9 active torsions:
REMARK  status: ('A' for Active; 'I' for Inactive)
REMARK    1  A    between atoms: C2_2  and  O1_3 
REMARK    2  A    between atoms: O1_3  and  C3_4 
REMARK    3  A    between atoms: C3_4  and  C4_6 
REMARK    4  A    between atoms: C5_7  and  C6_8 
REMARK    5  A    between atoms: C22_26  and  C23_27 
REMARK    6  A    between atoms: C23_27  and  O5_28 
REMARK    7  A    between atoms: C28_34  and  C29_35 
REMARK    8  A    between atoms: C29_35  and  O7_36 
REMARK    9  A    between atoms: C37_46  and  O10_48 
ROOT
HETATM    1  C4  UNL     1     -15.177  11.702  -2.583  1.00  0.00     0.165 C 
HETATM    2  C5  UNL     1     -14.100  11.593  -3.380  1.00  0.00     0.053 C 
HETATM    3  C7  UNL     1     -12.950  12.532  -3.199  1.00  0.00    -0.002 C 
HETATM    4  C8  UNL     1     -12.048  12.649  -4.226  1.00  0.00    -0.066 C 
HETATM    5  C9  UNL     1     -10.571  12.965  -4.074  1.00  0.00     0.042 C 
HETATM    6  C10 UNL     1      -9.723  12.551  -5.277  1.00  0.00     0.083 C 
HETATM    7  C11 UNL     1     -10.234  13.263  -6.517  1.00  0.00     0.136 C 
HETATM    8  O4  UNL     1      -9.449  13.747  -7.333  1.00  0.00    -0.297 OA
HETATM    9  C12 UNL     1     -11.735  13.303  -6.714  1.00  0.00     0.092 C 
HETATM   10  C13 UNL     1     -12.411  12.360  -5.688  1.00  0.00     0.052 C 
HETATM   11  C14 UNL     1     -12.443  14.652  -6.875  1.00  0.00    -0.039 A 
HETATM   12  C15 UNL     1     -13.676  14.548  -7.581  1.00  0.00     0.022 A 
HETATM   13  C16 UNL     1     -14.473  15.667  -7.865  1.00  0.00    -0.008 A 
HETATM   14  C17 UNL     1     -14.024  16.911  -7.451  1.00  0.00     0.042 A 
HETATM   15  C18 UNL     1     -12.823  17.070  -6.756  1.00  0.00     0.038 A 
HETATM   16  C19 UNL     1     -12.031  15.936  -6.439  1.00  0.00    -0.049 A 
HETATM   17  C20 UNL     1     -10.745  16.238  -5.695  1.00  0.00     0.040 C 
HETATM   18  C21 UNL     1     -10.865  17.017  -4.371  1.00  0.00     0.013 C 
HETATM   19  C22 UNL     1     -11.874  16.432  -3.350  1.00  0.00     0.034 C 
HETATM   20  C24 UNL     1     -11.192  16.038  -2.018  1.00  0.00     0.182 C 
HETATM   21  O6  UNL     1     -10.911  14.618  -1.958  1.00  0.00    -0.349 OA
HETATM   22  C25 UNL     1     -11.848  13.944  -1.218  1.00  0.00     0.092 C 
HETATM   23  C26 UNL     1     -11.841  14.146   0.160  1.00  0.00     0.021 C 
HETATM   24  C27 UNL     1     -12.971  13.857   0.929  1.00  0.00     0.090 C 
HETATM   25  C28 UNL     1     -14.117  13.349   0.375  1.00  0.00     0.034 C 
HETATM   26  C30 UNL     1     -14.040  13.011  -0.993  1.00  0.00     0.101 C 
HETATM   27  C31 UNL     1     -12.868  13.167  -1.806  1.00  0.00     0.044 C 
HETATM   28  O8  UNL     1     -15.238  12.590  -1.534  1.00  0.00    -0.302 OA
HETATM   29  O9  UNL     1     -12.822  14.193   2.264  1.00  0.00    -0.341 OA
HETATM   30  C32 UNL     1     -11.385  14.199   2.364  1.00  0.00     0.175 C 
HETATM   31  C33 UNL     1     -10.866  14.824   1.059  1.00  0.00     0.079 C 
HETATM   32  C34 UNL     1      -9.395  14.585   0.967  1.00  0.00    -0.019 C 
HETATM   33  C35 UNL     1      -8.649  14.537   2.086  1.00  0.00    -0.027 C 
HETATM   34  C36 UNL     1      -9.216  14.679   3.495  1.00  0.00     0.067 C 
HETATM   35  C37 UNL     1     -10.757  14.920   3.566  1.00  0.00     0.085 C 
HETATM   36  C38 UNL     1     -11.344  14.414   4.885  1.00  0.00     0.049 C 
HETATM   37  N1  UNL     1     -14.957  17.836  -7.859  1.00  0.00    -0.365 N 
HETATM   38  C39 UNL     1     -15.989  17.212  -8.508  1.00  0.00     0.089 A 
HETATM   39  C40 UNL     1     -15.715  15.862  -8.528  1.00  0.00     0.030 A 
HETATM   40  H39 UNL     1     -14.890  18.833  -7.696  1.00  0.00     0.165 HD
ENDROOT
BRANCH   1  41
HETATM   41  C3  UNL     1     -16.338  10.787  -2.651  1.00  0.00     0.318 C 
HETATM   42  O2  UNL     1     -16.771  10.326  -3.695  1.00  0.00    -0.257 OA
BRANCH  41  43
HETATM   43  O1  UNL     1     -16.805  10.556  -1.396  1.00  0.00    -0.316 OA
BRANCH  43  44
HETATM   44  C2  UNL     1     -18.039  11.217  -1.068  1.00  0.00     0.175 C 
HETATM   45  C1  UNL     1     -19.216  10.513  -1.721  1.00  0.00     0.034 C 
ENDBRANCH  43  44
ENDBRANCH  41  43
ENDBRANCH   1  41
BRANCH   2  46
HETATM   46  C6  UNL     1     -14.001  10.318  -4.169  1.00  0.00     0.273 C 
HETATM   47  O3  UNL     1     -14.352  10.217  -5.343  1.00  0.00    -0.301 OA
ENDBRANCH   2  46
BRANCH  25  48
HETATM   48  C29 UNL     1     -15.372  13.184   1.178  1.00  0.00     0.208 C 
BRANCH  48  49
HETATM   49  O7  UNL     1     -15.741  11.813   1.189  1.00  0.00    -0.396 OA
HETATM   50  H28 UNL     1     -16.012  11.596   0.280  1.00  0.00     0.209 HD
ENDBRANCH  48  49
ENDBRANCH  25  48
BRANCH  19  51
HETATM   51  C23 UNL     1     -12.977  17.473  -3.077  1.00  0.00     0.170 C 
BRANCH  51  52
HETATM   52  O5  UNL     1     -12.648  18.270  -1.945  1.00  0.00    -0.400 OA
HETATM   53  H23 UNL     1     -12.564  17.672  -1.178  1.00  0.00     0.209 HD
ENDBRANCH  51  52
ENDBRANCH  19  51
BRANCH  35  54
HETATM   54  O10 UNL     1     -11.016  16.334   3.495  1.00  0.00    -0.387 OA
HETATM   55  H38 UNL     1     -10.746  16.728   4.338  1.00  0.00     0.210 HD
ENDBRANCH  35  54
TORSDOF 9
ENDMDL
