MODEL 1
REMARK minimizedAffinity -9.9892807
REMARK  11 active torsions:
REMARK  status: ('A' for Active; 'I' for Inactive)
REMARK    1  A    between atoms: C6_6  and  C8_8 
REMARK    2  A    between atoms: C8_8  and  O1_9 
REMARK    3  A    between atoms: O1_9  and  C9_10 
REMARK    4  A    between atoms: C10_12  and  C11_13 
REMARK    5  A    between atoms: C11_13  and  O3_14 
REMARK    6  A    between atoms: C12_15  and  O4_16 
REMARK    7  A    between atoms: C13_17  and  O5_18 
REMARK    8  A    between atoms: C14_19  and  O6_20 
REMARK    9  A    between atoms: C20_26  and  C21_27 
REMARK   10  A    between atoms: C21_27  and  C22_28 
REMARK   11  A    between atoms: C26_34  and  O9_35 
ROOT
HETATM    1  C1  UNL     1      -1.694  51.348 -21.114  1.00  0.00     0.015 C 
HETATM    2  C2  UNL     1      -2.757  51.196 -21.923  1.00  0.00    -0.084 C 
HETATM    3  C3  UNL     1      -4.160  51.496 -21.462  1.00  0.00     0.034 C 
HETATM    4  C4  UNL     1      -5.095  50.303 -21.676  1.00  0.00     0.010 C 
HETATM    5  C5  UNL     1      -4.997  49.707 -23.104  1.00  0.00     0.005 C 
HETATM    6  C6  UNL     1      -6.069  48.582 -23.394  1.00  0.00    -0.018 C 
HETATM    7  C7  UNL     1      -6.333  47.650 -22.192  1.00  0.00     0.018 C 
HETATM    8  C15 UNL     1      -5.639  47.697 -24.598  1.00  0.00     0.012 C 
HETATM    9  C16 UNL     1      -4.762  48.456 -25.584  1.00  0.00     0.002 C 
HETATM   10  C17 UNL     1      -3.415  48.785 -24.949  1.00  0.00     0.010 C 
HETATM   11  C18 UNL     1      -3.512  49.363 -23.500  1.00  0.00    -0.032 C 
HETATM   12  C19 UNL     1      -2.916  48.273 -22.561  1.00  0.00     0.016 C 
HETATM   13  C20 UNL     1      -2.625  50.669 -23.352  1.00  0.00     0.025 C 
ENDROOT
BRANCH   6  14
HETATM   14  C8  UNL     1      -7.414  49.297 -23.744  1.00  0.00     0.180 C 
BRANCH  14  15
HETATM   15  O1  UNL     1      -8.536  48.488 -23.386  1.00  0.00    -0.358 OA
BRANCH  15  16
HETATM   16  C9  UNL     1      -9.063  47.769 -24.507  1.00  0.00     0.291 C 
HETATM   17  O2  UNL     1     -10.460  47.559 -24.329  1.00  0.00    -0.348 OA
HETATM   18  C10 UNL     1     -11.048  46.846 -25.427  1.00  0.00     0.179 C 
HETATM   19  C12 UNL     1     -10.957  47.671 -26.721  1.00  0.00     0.180 C 
HETATM   20  C13 UNL     1      -9.487  48.040 -26.993  1.00  0.00     0.183 C 
HETATM   21  C14 UNL     1      -8.783  48.621 -25.761  1.00  0.00     0.204 C 
BRANCH  18  22
HETATM   22  C11 UNL     1     -12.493  46.503 -25.061  1.00  0.00     0.198 C 
BRANCH  22  23
HETATM   23  O3  UNL     1     -13.390  47.384 -25.730  1.00  0.00    -0.398 OA
HETATM   24  H17 UNL     1     -14.291  47.107 -25.485  1.00  0.00     0.209 HD
ENDBRANCH  22  23
ENDBRANCH  18  22
BRANCH  19  25
HETATM   25  O4  UNL     1     -11.750  48.863 -26.620  1.00  0.00    -0.390 OA
HETATM   26  H19 UNL     1     -11.495  49.409 -27.389  1.00  0.00     0.210 HD
ENDBRANCH  19  25
BRANCH  20  27
HETATM   27  O5  UNL     1      -9.430  48.995 -28.065  1.00  0.00    -0.390 OA
HETATM   28  H21 UNL     1      -9.369  49.866 -27.612  1.00  0.00     0.210 HD
ENDBRANCH  20  27
BRANCH  21  29
HETATM   29  O6  UNL     1      -9.227  49.987 -25.594  1.00  0.00    -0.388 OA
HETATM   30  H23 UNL     1      -9.284  50.120 -24.624  1.00  0.00     0.210 HD
ENDBRANCH  21  29
ENDBRANCH  15  16
ENDBRANCH  14  15
ENDBRANCH   6  14
BRANCH  13  31
HETATM   31  C21 UNL     1      -2.945  51.803 -24.372  1.00  0.00     0.037 C 
BRANCH  31  32
HETATM   32  C22 UNL     1      -1.791  52.743 -24.608  1.00  0.00    -0.010 C 
HETATM   33  C23 UNL     1      -0.900  52.671 -25.612  1.00  0.00     0.044 C 
HETATM   34  C24 UNL     1       0.182  53.676 -25.752  1.00  0.00     0.291 C 
HETATM   35  C26 UNL     1      -0.726  51.690 -26.711  1.00  0.00     0.181 C 
HETATM   36  O7  UNL     1       0.266  54.739 -25.166  1.00  0.00    -0.260 OA
HETATM   37  O8  UNL     1       1.064  53.223 -26.688  1.00  0.00    -0.315 OA
HETATM   38  C25 UNL     1       0.746  51.871 -27.016  1.00  0.00     0.215 C 
BRANCH  35  39
HETATM   39  O9  UNL     1      -1.029  50.362 -26.318  1.00  0.00    -0.389 OA
HETATM   40  H40 UNL     1      -0.789  49.770 -27.051  1.00  0.00     0.210 HD
ENDBRANCH  35  39
ENDBRANCH  31  32
ENDBRANCH  13  31
TORSDOF 11
ENDMDL
