MODEL 1
REMARK minimizedAffinity -10.2500238
REMARK  2 active torsions:
REMARK  status: ('A' for Active; 'I' for Inactive)
REMARK    1  A    between atoms: C1_2  and  C2_3 
REMARK       I    between atoms: C1_2  and  N2_16 
REMARK    2  A    between atoms: C10_14  and  O2_15 
ROOT
HETATM    1  O1  UNL     1      -0.184  50.194 -21.130  1.00  0.00    -0.267 OA
HETATM    2  C1  UNL     1      -0.978  50.510 -20.248  1.00  0.00     0.258 C 
HETATM    3  N2  UNL     1      -2.242  51.064 -20.457  1.00  0.00    -0.339 N 
HETATM    4  C11 UNL     1      -3.357  50.713 -19.557  1.00  0.00     0.127 C 
HETATM    5  C12 UNL     1      -4.634  50.297 -20.300  1.00  0.00     0.024 C 
HETATM    6  C13 UNL     1      -4.310  49.570 -21.602  1.00  0.00     0.037 C 
HETATM    7  C14 UNL     1      -3.500  50.467 -22.497  1.00  0.00    -0.060 C 
HETATM    8  C15 UNL     1      -3.407  50.288 -23.857  1.00  0.00    -0.015 C 
HETATM    9  C16 UNL     1      -2.661  51.293 -24.808  1.00  0.00     0.031 C 
HETATM   10  C17 UNL     1      -2.596  52.541 -23.981  1.00  0.00     0.019 C 
HETATM   11  C18 UNL     1      -1.693  51.996 -22.838  1.00  0.00     0.031 C 
HETATM   12  C19 UNL     1      -0.336  52.517 -23.182  1.00  0.00     0.124 C 
HETATM   13  N3  UNL     1      -0.039  51.897 -24.536  1.00  0.00    -0.407 N 
HETATM   14  C20 UNL     1       0.734  52.765 -25.409  1.00  0.00     0.117 C 
HETATM   15  C21 UNL     1       1.381  51.970 -26.542  1.00  0.00     0.019 C 
HETATM   16  C22 UNL     1       0.427  50.997 -27.235  1.00  0.00     0.004 C 
HETATM   17  C23 UNL     1      -1.010  51.155 -26.760  1.00  0.00     0.026 C 
HETATM   18  C24 UNL     1      -1.118  51.046 -25.225  1.00  0.00     0.086 C 
HETATM   19  C25 UNL     1      -2.670  51.600 -21.752  1.00  0.00     0.122 C 
ENDROOT
BRANCH   2  20
HETATM   20  C2  UNL     1      -0.511  50.256 -18.867  1.00  0.00     0.081 A 
HETATM   21  C3  UNL     1      -0.811  49.081 -18.210  1.00  0.00     0.108 A 
HETATM   22  N1  UNL     1      -0.400  48.795 -16.952  1.00  0.00    -0.363 N 
HETATM   23  C4  UNL     1       0.322  49.717 -16.265  1.00  0.00     0.067 A 
ATOM     24  H1  UNL     1      -0.630  47.897 -16.525  1.00  0.00     0.165 HD
HETATM   25  C5  UNL     1       0.779  49.474 -14.960  1.00  0.00     0.061 A 
HETATM   26  C9  UNL     1       0.637  50.970 -16.838  1.00  0.00     0.026 A 
HETATM   27 CL1  UNL     1       0.445  47.961 -14.176  1.00  0.00    -0.082 Cl
HETATM   28  C6  UNL     1       1.513  50.418 -14.233  1.00  0.00     0.026 A 
HETATM   29  C7  UNL     1       1.812  51.647 -14.804  1.00  0.00     0.003 A 
HETATM   30  C8  UNL     1       1.376  51.919 -16.097  1.00  0.00     0.017 A 
HETATM   31  C10 UNL     1       0.188  51.225 -18.150  1.00  0.00     0.095 A 
BRANCH  31  32
HETATM   32  O2  UNL     1       0.457  52.460 -18.701  1.00  0.00    -0.359 OA
HETATM   33  H5  UNL     1      -0.143  52.584 -19.473  1.00  0.00     0.217 HD
ENDBRANCH  31  32
ENDBRANCH   2  20
TORSDOF 2
ENDMDL
