MODEL 1
REMARK minimizedAffinity -7.99544144
REMARK CNNscore 0.730257988
REMARK CNNaffinity 5.50548506
REMARK  11 active torsions:
REMARK  status: ('A' for Active; 'I' for Inactive)
REMARK    1  A    between atoms: C2_2  and  O1_3 
REMARK    2  A    between atoms: C2_2  and  C3_4 
REMARK    3  A    between atoms: C4_5  and  C5_6 
REMARK    4  A    between atoms: C5_6  and  O2_7 
REMARK    5  A    between atoms: C9_11  and  O3_12 
REMARK    6  A    between atoms: O3_12  and  C10_13 
REMARK    7  A    between atoms: C11_15  and  C12_16 
REMARK    8  A    between atoms: C12_16  and  O5_17 
REMARK    9  A    between atoms: C13_18  and  O6_19 
REMARK   10  A    between atoms: C14_20  and  O7_21 
REMARK   11  A    between atoms: C15_22  and  O8_23 
ROOT
HETATM    1  C5  UNL     1      -2.586  50.770 -25.645  1.00  0.00     0.086 C 
HETATM    2  C6  UNL     1      -2.535  49.197 -25.662  1.00  0.00     0.023 C 
HETATM    3  C7  UNL     1      -3.180  48.564 -26.907  1.00  0.00     0.013 C 
HETATM    4  C8  UNL     1      -3.223  48.623 -24.416  1.00  0.00     0.039 C 
HETATM    5  C9  UNL     1      -2.498  49.000 -23.124  1.00  0.00     0.126 C 
HETATM    6  C16 UNL     1      -1.635  50.261 -23.286  1.00  0.00     0.044 C 
HETATM    7  C17 UNL     1      -2.260  51.361 -24.189  1.00  0.00    -0.010 C 
HETATM    8  C18 UNL     1      -3.522  51.936 -23.497  1.00  0.00     0.018 C 
HETATM    9  C19 UNL     1      -1.237  52.529 -24.215  1.00  0.00     0.018 C 
ENDROOT
BRANCH   5  10
HETATM   10  O3  UNL     1      -3.423  49.229 -22.056  1.00  0.00    -0.353 OA
BRANCH  10  11
HETATM   11  C10 UNL     1      -2.858  49.123 -20.745  1.00  0.00     0.292 C 
HETATM   12  O4  UNL     1      -2.140  47.906 -20.572  1.00  0.00    -0.348 OA
HETATM   13  C11 UNL     1      -2.845  46.823 -19.946  1.00  0.00     0.179 C 
HETATM   14  C13 UNL     1      -3.302  47.213 -18.524  1.00  0.00     0.180 C 
HETATM   15  C14 UNL     1      -3.645  48.702 -18.387  1.00  0.00     0.183 C 
HETATM   16  C15 UNL     1      -3.998  49.339 -19.723  1.00  0.00     0.204 C 
BRANCH  13  17
HETATM   17  C12 UNL     1      -3.989  46.265 -20.815  1.00  0.00     0.198 C 
BRANCH  17  18
HETATM   18  O5  UNL     1      -3.905  44.839 -20.858  1.00  0.00    -0.398 OA
HETATM   19  H20 UNL     1      -3.913  44.569 -21.799  1.00  0.00     0.209 HD
ENDBRANCH  17  18
ENDBRANCH  13  17
BRANCH  14  20
HETATM   20  O6  UNL     1      -2.228  46.954 -17.593  1.00  0.00    -0.390 OA
HETATM   21  H22 UNL     1      -2.075  45.994 -17.581  1.00  0.00     0.210 HD
ENDBRANCH  14  20
BRANCH  15  22
HETATM   22  O7  UNL     1      -4.761  48.856 -17.490  1.00  0.00    -0.390 OA
HETATM   23  H24 UNL     1      -5.072  49.775 -17.604  1.00  0.00     0.210 HD
ENDBRANCH  15  22
BRANCH  16  24
HETATM   24  O8  UNL     1      -4.287  50.738 -19.505  1.00  0.00    -0.388 OA
HETATM   25  H26 UNL     1      -3.448  51.194 -19.313  1.00  0.00     0.210 HD
ENDBRANCH  16  24
ENDBRANCH  10  11
ENDBRANCH   5  10
BRANCH   1  26
HETATM   26  C4  UNL     1      -1.749  51.421 -26.740  1.00  0.00     0.010 C 
HETATM   27  C3  UNL     1      -0.514  51.094 -27.167  1.00  0.00     0.003 C 
BRANCH  27  28
HETATM   28  C2  UNL     1       0.272  51.786 -28.252  1.00  0.00     0.136 C 
HETATM   29  C1  UNL     1       1.756  51.864 -27.902  1.00  0.00     0.043 C 
BRANCH  28  30
HETATM   30  O1  UNL     1      -0.216  53.103 -28.481  1.00  0.00    -0.392 OA
HETATM   31  H5  UNL     1      -0.029  53.621 -27.679  1.00  0.00     0.210 HD
ENDBRANCH  28  30
ENDBRANCH  27  28
ENDBRANCH   1  26
BRANCH   1  32
HETATM   32  O2  UNL     1      -3.939  51.143 -25.976  1.00  0.00    -0.385 OA
HETATM   33  H8  UNL     1      -4.062  51.002 -26.930  1.00  0.00     0.211 HD
ENDBRANCH   1  32
TORSDOF 11
ENDMDL
