MODEL 1
REMARK minimizedAffinity -9.02861404
REMARK  12 active torsions:
REMARK  status: ('A' for Active; 'I' for Inactive)
REMARK    1  A    between atoms: C2_2  and  O1_3 
REMARK    2  A    between atoms: C2_2  and  C3_4 
REMARK    3  A    between atoms: C4_5  and  C5_6 
REMARK    4  A    between atoms: C5_6  and  O2_7 
REMARK    5  A    between atoms: C8_10  and  O3_11 
REMARK    6  A    between atoms: O3_11  and  C9_12 
REMARK    7  A    between atoms: C10_14  and  C11_15 
REMARK    8  A    between atoms: C11_15  and  O5_16 
REMARK    9  A    between atoms: C12_17  and  O6_18 
REMARK   10  A    between atoms: C13_19  and  O7_20 
REMARK   11  A    between atoms: C14_21  and  O8_22 
REMARK   12  A    between atoms: C15_23  and  O9_24 
ROOT
HETATM    1  C5  UNL     1      -0.734  51.026 -20.333  1.00  0.00     0.088 C 
HETATM    2  C6  UNL     1      -0.735  51.899 -21.621  1.00  0.00     0.052 C 
HETATM    3  C7  UNL     1       0.592  52.639 -21.874  1.00  0.00     0.016 C 
HETATM    4  C8  UNL     1      -1.052  51.029 -22.865  1.00  0.00     0.160 C 
HETATM    5  C15 UNL     1      -2.043  49.877 -22.567  1.00  0.00     0.148 C 
HETATM    6  C16 UNL     1      -2.959  50.207 -21.392  1.00  0.00     0.046 C 
HETATM    7  C17 UNL     1      -2.203  50.480 -20.058  1.00  0.00    -0.010 C 
HETATM    8  C18 UNL     1      -2.168  49.168 -19.236  1.00  0.00     0.018 C 
HETATM    9  C19 UNL     1      -3.078  51.485 -19.264  1.00  0.00     0.018 C 
ENDROOT
BRANCH   4  10
HETATM   10  O3  UNL     1      -1.623  51.884 -23.877  1.00  0.00    -0.350 OA
BRANCH  10  11
HETATM   11  C9  UNL     1      -1.102  51.597 -25.182  1.00  0.00     0.292 C 
HETATM   12  O4  UNL     1       0.322  51.537 -25.101  1.00  0.00    -0.348 OA
HETATM   13  C10 UNL     1       0.941  51.284 -26.367  1.00  0.00     0.179 C 
HETATM   14  C12 UNL     1       0.624  52.423 -27.348  1.00  0.00     0.180 C 
HETATM   15  C13 UNL     1      -0.893  52.551 -27.500  1.00  0.00     0.183 C 
HETATM   16  C14 UNL     1      -1.566  52.718 -26.138  1.00  0.00     0.204 C 
BRANCH  13  17
HETATM   17  C11 UNL     1       2.455  51.138 -26.163  1.00  0.00     0.198 C 
BRANCH  17  18
HETATM   18  O5  UNL     1       3.188  51.486 -27.335  1.00  0.00    -0.398 OA
HETATM   19  H18 UNL     1       2.786  52.310 -27.689  1.00  0.00     0.209 HD
ENDBRANCH  17  18
ENDBRANCH  13  17
BRANCH  14  20
HETATM   20  O6  UNL     1       1.214  52.181 -28.632  1.00  0.00    -0.390 OA
HETATM   21  H20 UNL     1       0.785  52.828 -29.232  1.00  0.00     0.210 HD
ENDBRANCH  14  20
BRANCH  15  22
HETATM   22  O7  UNL     1      -1.184  53.673 -28.348  1.00  0.00    -0.390 OA
HETATM   23  H22 UNL     1      -2.133  53.867 -28.208  1.00  0.00     0.210 HD
ENDBRANCH  15  22
BRANCH  16  24
HETATM   24  O8  UNL     1      -2.992  52.727 -26.344  1.00  0.00    -0.388 OA
HETATM   25  H24 UNL     1      -3.316  51.804 -26.287  1.00  0.00     0.210 HD
ENDBRANCH  16  24
ENDBRANCH  10  11
ENDBRANCH   4  10
BRANCH   5  26
HETATM   26  O9  UNL     1      -2.859  49.610 -23.720  1.00  0.00    -0.393 OA
HETATM   27  H26 UNL     1      -3.391  50.423 -23.837  1.00  0.00     0.210 HD
ENDBRANCH   5  26
BRANCH   1  28
HETATM   28  C4  UNL     1      -0.168  51.788 -19.141  1.00  0.00     0.010 C 
HETATM   29  C3  UNL     1       0.295  51.294 -17.977  1.00  0.00     0.003 C 
BRANCH  29  30
HETATM   30  C2  UNL     1       0.871  52.138 -16.877  1.00  0.00     0.136 C 
HETATM   31  C1  UNL     1       1.583  51.283 -15.839  1.00  0.00     0.043 C 
BRANCH  30  32
HETATM   32  O1  UNL     1       1.810  53.021 -17.479  1.00  0.00    -0.392 OA
HETATM   33  H5  UNL     1       2.140  53.610 -16.779  1.00  0.00     0.210 HD
ENDBRANCH  30  32
ENDBRANCH  29  30
ENDBRANCH   1  28
BRANCH   1  34
HETATM   34  O2  UNL     1       0.126  49.913 -20.624  1.00  0.00    -0.385 OA
HETATM   35  H8  UNL     1       0.284  49.429 -19.797  1.00  0.00     0.211 HD
ENDBRANCH   1  34
TORSDOF 12
ENDMDL
