MODEL 1
REMARK minimizedAffinity -6.36146784
REMARK CNNscore 0.221379071
REMARK CNNaffinity 5.80510092
REMARK  11 active torsions:
REMARK  status: ('A' for Active; 'I' for Inactive)
REMARK    1  A    between atoms: C2_2  and  C4_4 
REMARK    2  A    between atoms: C12_13  and  C13_14 
REMARK    3  A    between atoms: C13_14  and  C15_16 
REMARK    4  A    between atoms: C15_16  and  C16_17 
REMARK    5  A    between atoms: C16_17  and  C17_18 
REMARK    6  A    between atoms: C18_19  and  C20_21 
REMARK    7  A    between atoms: C20_21  and  O3_23 
REMARK    8  A    between atoms: C27_30  and  C28_31 
REMARK    9  A    between atoms: C28_31  and  C29_32 
REMARK   10  A    between atoms: C29_32  and  C30_33 
REMARK   11  A    between atoms: C30_33  and  O5_35 
ROOT
HETATM    1  C4  UNL     1       5.286  12.049  20.777  1.00  0.00     0.054 C 
HETATM    2  C5  UNL     1       5.345  13.089  19.689  1.00  0.00     0.160 A 
HETATM    3  O1  UNL     1       4.415  14.177  19.787  1.00  0.00    -0.374 OA
HETATM    4  C6  UNL     1       4.239  13.266  18.694  1.00  0.00     0.157 A 
HETATM    5  C7  UNL     1       3.024  12.379  18.715  1.00  0.00     0.035 C 
HETATM    6  C8  UNL     1       1.723  13.086  18.169  1.00  0.00    -0.029 C 
HETATM    7  C9  UNL     1       1.537  14.496  18.778  1.00  0.00     0.016 C 
HETATM    8  C10 UNL     1       1.852  13.271  16.617  1.00  0.00     0.011 C 
HETATM    9  C11 UNL     1       0.753  12.444  15.964  1.00  0.00     0.006 C 
HETATM   10  C12 UNL     1      -0.353  12.410  17.013  1.00  0.00    -0.002 C 
HETATM   11  C21 UNL     1       0.422  12.178  18.353  1.00  0.00    -0.032 C 
HETATM   12  C22 UNL     1      -0.490  12.593  19.533  1.00  0.00     0.016 C 
HETATM   13  C23 UNL     1       0.840  10.706  18.569  1.00  0.00     0.011 C 
HETATM   14  C24 UNL     1       1.721  10.495  19.805  1.00  0.00     0.011 C 
HETATM   15  C25 UNL     1       2.754  11.602  20.008  1.00  0.00    -0.024 A 
HETATM   16  C26 UNL     1       2.708  12.323  21.336  1.00  0.00     0.022 A 
HETATM   17  C27 UNL     1       3.894  11.415  21.057  1.00  0.00    -0.021 A 
ENDROOT
BRANCH  10  18
HETATM   18  C13 UNL     1      -1.561  11.482  16.682  1.00  0.00    -0.014 C 
HETATM   19  C14 UNL     1      -2.724  11.573  17.674  1.00  0.00     0.010 C 
BRANCH  18  20
HETATM   20  C15 UNL     1      -1.045  10.021  16.558  1.00  0.00     0.008 C 
BRANCH  20  21
HETATM   21  C16 UNL     1      -2.121   8.922  16.617  1.00  0.00     0.028 C 
BRANCH  21  22
HETATM   22  C17 UNL     1      -1.806   7.721  15.767  1.00  0.00    -0.013 C 
HETATM   23  C18 UNL     1      -2.673   6.875  15.172  1.00  0.00     0.008 C 
HETATM   24  C19 UNL     1      -2.210   5.667  14.412  1.00  0.00     0.055 C 
BRANCH  23  25
HETATM   25  C20 UNL     1      -4.144   7.025  15.215  1.00  0.00     0.171 C 
HETATM   26  O2  UNL     1      -4.799   7.777  14.514  1.00  0.00    -0.646 OA
BRANCH  25  27
HETATM   27  O3  UNL     1      -4.717   6.310  16.197  1.00  0.00    -0.773 OA
HETATM   28  H30 UNL     1      -5.664   6.545  16.132  1.00  0.00     0.167 HD
ENDBRANCH  25  27
ENDBRANCH  23  25
ENDBRANCH  21  22
ENDBRANCH  20  21
ENDBRANCH  18  20
ENDBRANCH  10  18
BRANCH  17  29
HETATM   29  C28 UNL     1       4.020  10.052  21.771  1.00  0.00     0.021 C 
BRANCH  29  30
HETATM   30  C29 UNL     1       3.318   9.906  23.115  1.00  0.00     0.111 C 
BRANCH  30  31
HETATM   31  C30 UNL     1       2.400   8.719  23.170  1.00  0.00     0.139 C 
HETATM   32  O4  UNL     1       2.096   8.002  22.231  1.00  0.00    -0.650 OA
BRANCH  31  33
HETATM   33  O5  UNL     1       1.950   8.454  24.411  1.00  0.00    -0.776 OA
HETATM   34  H44 UNL     1       1.340   7.700  24.278  1.00  0.00     0.167 HD
ENDBRANCH  31  33
ENDBRANCH  30  31
ENDBRANCH  29  30
ENDBRANCH  17  29
BRANCH   1  35
HETATM   35  C2  UNL     1       6.053  12.494  22.029  1.00  0.00    -0.086 C 
HETATM   36  C1  UNL     1       6.259  11.696  23.090  1.00  0.00     0.014 C 
HETATM   37  C3  UNL     1       6.551  13.915  22.026  1.00  0.00     0.043 C 
ENDBRANCH   1  35
TORSDOF 11
ENDMDL
