MODEL 1
REMARK minimizedAffinity -9.7686224
REMARK CNNscore 0.456958473
REMARK CNNaffinity 7.57999086
REMARK  8 active torsions:
REMARK  status: ('A' for Active; 'I' for Inactive)
REMARK    1  A    between atoms: C3_3  and  O1_4 
REMARK    2  A    between atoms: N1_14  and  O2_16 
REMARK    3  A    between atoms: O2_16  and  C13_17 
REMARK    4  A    between atoms: C13_17  and  C14_18 
REMARK       I    between atoms: C14_18  and  N2_20 
REMARK    5  A    between atoms: N2_20  and  C15_21 
REMARK    6  A    between atoms: C15_21  and  C16_22 
REMARK    7  A    between atoms: C16_22  and  O4_23 
REMARK    8  A    between atoms: C16_22  and  C17_24 
ROOT
HETATM    1  C1  UNL     1       3.102   8.380   8.323  1.00  0.00     0.015 C 
HETATM    2  C2  UNL     1       2.506   7.792   9.184  1.00  0.00    -0.078 C 
HETATM    3  C3  UNL     1       1.758   7.055  10.215  1.00  0.00     0.128 C 
HETATM    4  C4  UNL     1       2.607   5.966  10.880  1.00  0.00     0.052 C 
HETATM    5  C5  UNL     1       1.757   5.580  12.086  1.00  0.00     0.010 C 
HETATM    6  C6  UNL     1       1.280   6.929  12.637  1.00  0.00     0.002 C 
HETATM    7  C7  UNL     1       0.027   6.903  13.544  1.00  0.00    -0.004 C 
HETATM    8  C8  UNL     1      -1.131   5.992  13.103  1.00  0.00     0.010 C 
HETATM    9  C9  UNL     1      -2.304   6.029  14.086  1.00  0.00     0.035 C 
HETATM   10  C10 UNL     1      -2.743   7.423  14.486  1.00  0.00    -0.069 C 
HETATM   11  C11 UNL     1      -4.054   7.726  14.533  1.00  0.00     0.030 C 
HETATM   12  C12 UNL     1      -4.538   9.032  15.072  1.00  0.00     0.032 C 
HETATM   13  N1  UNL     1      -5.768   9.447  15.081  1.00  0.00    -0.271 N 
ATOM     14  H1  UNL     1      -6.066  10.336  15.484  1.00  0.00     0.194 HD
HETATM   15  C23 UNL     1      -3.511   9.932  15.729  1.00  0.00     0.060 C 
HETATM   16  C24 UNL     1      -2.185   9.857  14.985  1.00  0.00     0.020 C 
HETATM   17  C25 UNL     1      -1.633   8.404  14.865  1.00  0.00    -0.016 C 
HETATM   18  C26 UNL     1      -1.073   8.001  16.256  1.00  0.00     0.020 C 
HETATM   19  C27 UNL     1      -0.478   8.348  13.789  1.00  0.00     0.002 C 
HETATM   20  C28 UNL     1      -0.838   9.049  12.451  1.00  0.00     0.007 C 
HETATM   21  C29 UNL     1      -0.155   8.501  11.194  1.00  0.00     0.014 C 
HETATM   22  C30 UNL     1       1.250   7.922  11.425  1.00  0.00     0.003 C 
HETATM   23  C31 UNL     1       2.221   9.094  11.737  1.00  0.00     0.020 C 
ENDROOT
BRANCH   3  24
HETATM   24  O1  UNL     1       0.662   6.392   9.575  1.00  0.00    -0.377 OA
HETATM   25  H2  UNL     1       1.007   6.016   8.747  1.00  0.00     0.211 HD
ENDBRANCH   3  24
BRANCH  13  26
HETATM   26  O2  UNL     1      -6.637   8.533  14.473  1.00  0.00    -0.271 OA
BRANCH  26  27
HETATM   27  C13 UNL     1      -7.493   7.988  15.473  1.00  0.00     0.303 C 
BRANCH  27  28
HETATM   28  C14 UNL     1      -8.332   6.896  14.832  1.00  0.00     0.243 C 
HETATM   29  O3  UNL     1      -9.497   6.671  15.139  1.00  0.00    -0.271 OA
HETATM   30  N2  UNL     1      -7.666   6.169  13.860  1.00  0.00    -0.356 N 
HETATM   31  H16 UNL     1      -6.841   6.597  13.455  1.00  0.00     0.162 HD
BRANCH  30  32
HETATM   32  C15 UNL     1      -8.386   5.210  13.027  1.00  0.00     0.159 C 
BRANCH  32  33
HETATM   33  C16 UNL     1      -7.807   3.777  13.104  1.00  0.00     0.170 C 
BRANCH  33  34
HETATM   34  O4  UNL     1      -7.702   3.410  14.489  1.00  0.00    -0.389 OA
HETATM   35  H20 UNL     1      -8.617   3.383  14.815  1.00  0.00     0.210 HD
ENDBRANCH  33  34
BRANCH  33  36
HETATM   36  C17 UNL     1      -6.461   3.690  12.426  1.00  0.00    -0.013 A 
HETATM   37  C18 UNL     1      -5.300   4.260  12.949  1.00  0.00     0.013 A 
HETATM   38  C19 UNL     1      -4.095   4.143  12.261  1.00  0.00     0.025 A 
HETATM   39  C20 UNL     1      -4.074   3.448  11.056  1.00  0.00     0.005 A 
HETATM   40  C21 UNL     1      -2.794   3.305  10.289  1.00  0.00     0.068 C 
HETATM   41  N3  UNL     1      -5.185   2.892  10.520  1.00  0.00    -0.369 N 
HETATM   42  C22 UNL     1      -6.338   3.017  11.215  1.00  0.00     0.097 A 
ATOM     43  H3  UNL     1      -5.154   2.399   9.628  1.00  0.00     0.165 HD
ENDBRANCH  33  36
ENDBRANCH  32  33
ENDBRANCH  30  32
ENDBRANCH  27  28
ENDBRANCH  26  27
ENDBRANCH  13  26
TORSDOF 8
ENDMDL
