MODEL 1
REMARK minimizedAffinity -7.63582468
REMARK CNNscore 0.68130374
REMARK CNNaffinity 7.15714455
REMARK  20 active torsions:
REMARK  status: ('A' for Active; 'I' for Inactive)
REMARK    1  A    between atoms: C2_2  and  O2_4 
REMARK    2  A    between atoms: O2_4  and  C3_5 
REMARK    3  A    between atoms: C5_7  and  O3_8 
REMARK    4  A    between atoms: C11_14  and  O4_15 
REMARK    5  A    between atoms: O4_15  and  C12_16 
REMARK    6  A    between atoms: C12_16  and  C13_18 
REMARK    7  A    between atoms: C13_18  and  C14_19 
REMARK    8  A    between atoms: C14_19  and  C15_20 
REMARK    9  A    between atoms: C15_20  and  C16_21 
REMARK   10  A    between atoms: C16_21  and  C17_22 
REMARK   11  A    between atoms: C17_22  and  C18_23 
REMARK   12  A    between atoms: C18_23  and  C19_24 
REMARK       I    between atoms: C19_24  and  N1_26 
REMARK   13  A    between atoms: N1_26  and  C20_27 
REMARK   14  A    between atoms: C20_27  and  C21_28 
REMARK   15  A    between atoms: C20_27  and  C25_36 
REMARK   16  A    between atoms: C21_28  and  C22_29 
REMARK   17  A    between atoms: C22_29  and  C23_30 
REMARK   18  A    between atoms: C23_30  and  N2_31 
REMARK       I    between atoms: C24_33  and  N3_34 
REMARK       I    between atoms: C24_33  and  N4_35 
REMARK   19  A    between atoms: C25_36  and  O8_38 
REMARK   20  A    between atoms: C35_48  and  C36_49 
ROOT
HETATM    1  C3  UNL     1       2.305   8.316  10.229  1.00  0.00     0.144 C 
HETATM    2  C4  UNL     1       0.833   8.599  10.516  1.00  0.00     0.072 C 
HETATM    3  C5  UNL     1       0.369   7.554  11.575  1.00  0.00     0.072 C 
HETATM    4  C6  UNL     1      -0.397   8.298  12.733  1.00  0.00     0.026 C 
HETATM    5  C7  UNL     1      -1.649   9.028  12.237  1.00  0.00     0.008 C 
HETATM    6  C8  UNL     1      -2.853   8.130  12.027  1.00  0.00     0.006 C 
HETATM    7  C9  UNL     1      -3.069   7.030  13.089  1.00  0.00    -0.004 C 
HETATM    8  C10 UNL     1      -4.576   6.938  13.423  1.00  0.00     0.038 C 
HETATM    9  C11 UNL     1      -5.050   8.135  14.250  1.00  0.00     0.132 C 
HETATM   10  C26 UNL     1      -4.241   8.267  15.539  1.00  0.00     0.033 C 
HETATM   11  C27 UNL     1      -2.737   8.328  15.272  1.00  0.00     0.012 C 
HETATM   12  C28 UNL     1      -2.195   7.171  14.371  1.00  0.00    -0.036 C 
HETATM   13  C29 UNL     1      -2.323   5.867  15.211  1.00  0.00     0.016 C 
HETATM   14  C30 UNL     1      -0.679   7.457  14.016  1.00  0.00     0.001 C 
HETATM   15  C31 UNL     1       0.257   6.237  14.074  1.00  0.00     0.007 C 
HETATM   16  C32 UNL     1       1.656   6.592  13.574  1.00  0.00     0.013 C 
HETATM   17  C33 UNL     1       1.673   6.799  12.043  1.00  0.00    -0.002 C 
HETATM   18  C34 UNL     1       1.821   5.390  11.406  1.00  0.00     0.019 C 
HETATM   19  C35 UNL     1       2.825   7.760  11.582  1.00  0.00     0.059 C 
ENDROOT
BRANCH   9  20
HETATM   20  O4  UNL     1      -6.436   7.938  14.591  1.00  0.00    -0.316 OA
BRANCH  20  21
HETATM   21  C12 UNL     1      -6.688   6.851  15.376  1.00  0.00     0.259 C 
HETATM   22  O5  UNL     1      -6.408   5.690  15.103  1.00  0.00    -0.265 OA
BRANCH  21  23
HETATM   23  C13 UNL     1      -7.458   7.250  16.609  1.00  0.00     0.111 C 
BRANCH  23  24
HETATM   24  C14 UNL     1      -8.930   7.505  16.297  1.00  0.00     0.010 C 
BRANCH  24  25
HETATM   25  C15 UNL     1      -9.581   6.524  15.314  1.00  0.00     0.000 C 
BRANCH  25  26
HETATM   26  C16 UNL     1     -10.206   7.147  14.063  1.00  0.00     0.000 C 
BRANCH  26  27
HETATM   27  C17 UNL     1     -11.111   8.355  14.302  1.00  0.00     0.009 C 
BRANCH  27  28
HETATM   28  C18 UNL     1     -11.763   8.877  13.025  1.00  0.00     0.103 C 
BRANCH  28  29
HETATM   29  C19 UNL     1     -13.250   9.133  13.199  1.00  0.00     0.218 C 
HETATM   30  O6  UNL     1     -13.878   8.862  14.215  1.00  0.00    -0.274 OA
HETATM   31  N1  UNL     1     -13.828   9.655  12.060  1.00  0.00    -0.347 N 
HETATM   32  H29 UNL     1     -13.212  10.188  11.455  1.00  0.00     0.163 HD
BRANCH  31  33
HETATM   33  C20 UNL     1     -15.238  10.075  12.050  1.00  0.00     0.182 C 
BRANCH  33  34
HETATM   34  C21 UNL     1     -15.472  10.967  13.277  1.00  0.00     0.038 C 
BRANCH  34  35
HETATM   35  C22 UNL     1     -16.443  12.132  13.046  1.00  0.00     0.022 C 
BRANCH  35  36
HETATM   36  C23 UNL     1     -16.524  12.648  11.611  1.00  0.00     0.121 C 
BRANCH  36  37
HETATM   37  N2  UNL     1     -17.894  12.495  11.137  1.00  0.00    -0.372 N 
HETATM   38  C24 UNL     1     -18.291  13.191  10.141  1.00  0.00     0.121 C 
HETATM   39  N3  UNL     1     -19.573  13.096   9.723  1.00  0.00    -0.279 NA
HETATM   40  N4  UNL     1     -17.628  14.089   9.375  1.00  0.00    -0.279 NA
HETATM   41  H37 UNL     1     -20.109  12.549  10.389  1.00  0.00     0.126 HD
HETATM   42  H38 UNL     1     -19.994  14.009   9.591  1.00  0.00     0.126 HD
HETATM   43  H39 UNL     1     -16.618  14.030   9.460  1.00  0.00     0.126 HD
HETATM   44  H40 UNL     1     -17.906  14.014   8.402  1.00  0.00     0.126 HD
ATOM     45  H2  UNL     1     -18.529  11.841  11.594  1.00  0.00     0.161 HD
ENDBRANCH  36  37
ENDBRANCH  35  36
ENDBRANCH  34  35
ENDBRANCH  33  34
BRANCH  33  46
HETATM   46  C25 UNL     1     -16.139   8.831  12.053  1.00  0.00     0.163 C 
HETATM   47  O7  UNL     1     -16.900   8.485  12.944  1.00  0.00    -0.648 OA
BRANCH  46  48
HETATM   48  O8  UNL     1     -15.990   8.044  10.962  1.00  0.00    -0.775 OA
HETATM   49  H41 UNL     1     -16.604   7.299  11.152  1.00  0.00     0.167 HD
ENDBRANCH  46  48
ENDBRANCH  33  46
ENDBRANCH  31  33
ENDBRANCH  28  29
ENDBRANCH  27  28
ENDBRANCH  26  27
ENDBRANCH  25  26
ENDBRANCH  24  25
ENDBRANCH  23  24
ENDBRANCH  21  23
ENDBRANCH  20  21
ENDBRANCH   9  20
BRANCH   3  50
HETATM   50  O3  UNL     1      -0.540   6.638  10.967  1.00  0.00    -0.389 OA
HETATM   51  H7  UNL     1      -0.186   6.377  10.097  1.00  0.00     0.210 HD
ENDBRANCH   3  50
BRANCH   1  52
HETATM   52  O2  UNL     1       2.392   7.356   9.163  1.00  0.00    -0.316 OA
BRANCH  52  53
HETATM   53  C2  UNL     1       2.536   7.879   7.908  1.00  0.00     0.255 C 
HETATM   54  C1  UNL     1       1.936   6.949   6.899  1.00  0.00     0.126 C 
HETATM   55  O1  UNL     1       3.077   8.943   7.641  1.00  0.00    -0.266 OA
ENDBRANCH  52  53
ENDBRANCH   1  52
BRANCH  19  56
HETATM   56  C36 UNL     1       4.267   7.244  11.624  1.00  0.00    -0.043 A 
HETATM   57  C37 UNL     1       5.175   7.556  12.560  1.00  0.00     0.090 A 
HETATM   58  C38 UNL     1       6.541   6.986  12.578  1.00  0.00     0.287 A 
HETATM   59  O9  UNL     1       7.326   7.302  13.461  1.00  0.00    -0.260 OA
HETATM   60  O10 UNL     1       6.863   6.097  11.590  1.00  0.00    -0.288 OA
HETATM   61  C39 UNL     1       5.891   5.754  10.650  1.00  0.00     0.146 A 
HETATM   62  C40 UNL     1       4.656   6.258  10.635  1.00  0.00     0.032 A 
ENDBRANCH  19  56
TORSDOF 20
ENDMDL
