MODEL 1
REMARK minimizedAffinity -8.52142906
REMARK CNNscore 0.542026758
REMARK CNNaffinity 6.97742891
REMARK  7 active torsions:
REMARK  status: ('A' for Active; 'I' for Inactive)
REMARK    1  A    between atoms: C4_4  and  C5_5 
REMARK    2  A    between atoms: C15_15  and  C16_16 
REMARK    3  A    between atoms: C16_16  and  C18_18 
REMARK    4  A    between atoms: C18_18  and  C19_19 
REMARK    5  A    between atoms: C23_25  and  C24_26 
REMARK    6  A    between atoms: C27_29  and  O3_30 
REMARK    7  A    between atoms: C30_33  and  O4_34 
ROOT
HETATM    1  C5  UNL     1      -1.795  51.378 -19.350  1.00  0.00     0.004 C 
HETATM    2  C6  UNL     1      -1.584  50.531 -20.378  1.00  0.00    -0.075 C 
HETATM    3  C7  UNL     1      -0.464  49.508 -20.474  1.00  0.00     0.034 C 
HETATM    4  C8  UNL     1      -0.982  48.099 -20.791  1.00  0.00     0.005 C 
HETATM    5  C9  UNL     1      -1.928  48.072 -22.002  1.00  0.00     0.010 C 
HETATM    6  C10 UNL     1      -3.067  49.101 -21.875  1.00  0.00    -0.033 C 
HETATM    7  C11 UNL     1      -3.990  48.648 -20.698  1.00  0.00     0.016 C 
HETATM    8  C12 UNL     1      -2.457  50.503 -21.624  1.00  0.00     0.023 C 
HETATM    9  C13 UNL     1      -3.658  51.435 -21.772  1.00  0.00     0.010 C 
HETATM   10  C14 UNL     1      -4.481  50.822 -22.911  1.00  0.00     0.006 C 
HETATM   11  C15 UNL     1      -3.995  49.353 -23.110  1.00  0.00    -0.002 C 
ENDROOT
BRANCH   1  12
HETATM   12  C4  UNL     1      -1.015  51.481 -18.134  1.00  0.00     0.008 C 
HETATM   13  C3  UNL     1      -0.972  50.594 -17.117  1.00  0.00    -0.048 C 
HETATM   14  C2  UNL     1      -0.122  50.841 -15.946  1.00  0.00    -0.032 C 
HETATM   15  C26 UNL     1      -1.756  49.301 -17.002  1.00  0.00     0.071 C 
HETATM   16  C1  UNL     1       1.203  51.033 -16.078  1.00  0.00     0.022 C 
HETATM   17  C30 UNL     1      -0.871  50.788 -14.620  1.00  0.00     0.157 C 
HETATM   18  C28 UNL     1      -1.607  49.445 -14.461  1.00  0.00     0.044 C 
HETATM   19  C27 UNL     1      -2.524  49.196 -15.671  1.00  0.00     0.129 C 
HETATM   20  C29 UNL     1      -2.388  49.391 -13.144  1.00  0.00     0.015 C 
BRANCH  17  21
HETATM   21  O4  UNL     1       0.027  50.965 -13.523  1.00  0.00    -0.390 OA
HETATM   22  H44 UNL     1       0.328  51.888 -13.571  1.00  0.00     0.210 HD
ENDBRANCH  17  21
BRANCH  19  23
HETATM   23  O3  UNL     1      -3.614  50.121 -15.655  1.00  0.00    -0.395 OA
HETATM   24  H38 UNL     1      -4.103  50.026 -16.490  1.00  0.00     0.210 HD
ENDBRANCH  19  23
ENDBRANCH   1  12
BRANCH  11  25
HETATM   25  C16 UNL     1      -3.514  49.122 -24.577  1.00  0.00    -0.011 C 
HETATM   26  C17 UNL     1      -4.536  48.437 -25.495  1.00  0.00     0.010 C 
BRANCH  25  27
HETATM   27  C18 UNL     1      -2.948  50.370 -25.287  1.00  0.00     0.038 C 
BRANCH  27  28
HETATM   28  C19 UNL     1      -1.421  50.554 -25.306  1.00  0.00     0.141 C 
HETATM   29  O1  UNL     1      -1.050  50.894 -23.952  1.00  0.00    -0.311 OA
HETATM   30  C20 UNL     1       0.002  51.750 -23.944  1.00  0.00     0.289 C 
HETATM   31  O2  UNL     1       0.622  52.105 -22.960  1.00  0.00    -0.260 OA
HETATM   32  C21 UNL     1       0.239  52.175 -25.342  1.00  0.00     0.014 C 
HETATM   33  C22 UNL     1       1.370  52.810 -25.673  1.00  0.00     0.025 C 
HETATM   34  C23 UNL     1      -0.918  51.716 -26.174  1.00  0.00     0.053 C 
BRANCH  34  35
HETATM   35  C24 UNL     1      -0.577  51.307 -27.615  1.00  0.00     0.007 C 
HETATM   36  C25 UNL     1      -0.152  52.490 -28.480  1.00  0.00     0.006 C 
ENDBRANCH  34  35
ENDBRANCH  27  28
ENDBRANCH  25  27
ENDBRANCH  11  25
TORSDOF 7
ENDMDL
