MODEL 1
REMARK minimizedAffinity -8.81467152
REMARK  4 active torsions:
REMARK  status: ('A' for Active; 'I' for Inactive)
REMARK    1  A    between atoms: C10_11  and  O2_12 
REMARK    2  A    between atoms: C14_16  and  C15_17 
REMARK    3  A    between atoms: C15_17  and  O3_18 
REMARK    4  A    between atoms: C16_20  and  O5_21 
ROOT
HETATM    1  C1  UNL     1      -0.881  48.504 -21.031  1.00  0.00     0.023 C 
HETATM    2  C2  UNL     1      -2.196  48.608 -20.245  1.00  0.00     0.018 C 
HETATM    3  C3  UNL     1      -1.931  48.124 -18.801  1.00  0.00     0.023 C 
HETATM    4  C4  UNL     1      -3.188  47.612 -20.870  1.00  0.00     0.135 C 
HETATM    5  O1  UNL     1      -3.066  46.393 -20.740  1.00  0.00    -0.297 OA
HETATM    6  C5  UNL     1      -4.347  48.182 -21.649  1.00  0.00     0.080 C 
HETATM    7  C6  UNL     1      -3.855  49.348 -22.490  1.00  0.00     0.022 C 
HETATM    8  C7  UNL     1      -3.337  50.557 -21.645  1.00  0.00    -0.007 C 
HETATM    9  C8  UNL     1      -4.529  51.530 -21.420  1.00  0.00     0.021 C 
HETATM   10  C9  UNL     1      -2.250  51.354 -22.395  1.00  0.00     0.003 A 
HETATM   11  C10 UNL     1      -2.372  51.665 -23.765  1.00  0.00     0.107 A 
HETATM   12  C11 UNL     1      -1.366  52.352 -24.425  1.00  0.00     0.112 A 
HETATM   13  C12 UNL     1      -0.230  52.782 -23.781  1.00  0.00     0.015 A 
HETATM   14  C13 UNL     1       0.621  53.543 -24.724  1.00  0.00     0.079 C 
HETATM   15  C14 UNL     1      -0.051  53.136 -26.044  1.00  0.00     0.157 C 
HETATM   16  O4  UNL     1      -1.415  52.690 -25.754  1.00  0.00    -0.340 OA
HETATM   17  C16 UNL     1      -0.077  52.542 -22.433  1.00  0.00     0.089 A 
HETATM   18  C17 UNL     1      -1.087  51.839 -21.733  1.00  0.00     0.053 A 
HETATM   19  C18 UNL     1      -0.920  51.653 -20.271  1.00  0.00     0.163 C 
HETATM   20  O6  UNL     1       0.126  51.999 -19.725  1.00  0.00    -0.292 OA
HETATM   21  C19 UNL     1      -2.075  51.116 -19.485  1.00  0.00     0.091 C 
HETATM   22  C20 UNL     1      -2.857  50.038 -20.237  1.00  0.00     0.021 C 
ENDROOT
BRANCH  15  23
HETATM   23  C15 UNL     1      -0.121  54.272 -27.066  1.00  0.00     0.196 C 
BRANCH  23  24
HETATM   24  O3  UNL     1       0.246  55.522 -26.485  1.00  0.00    -0.398 OA
HETATM   25  H20 UNL     1      -0.244  55.596 -25.646  1.00  0.00     0.209 HD
ENDBRANCH  23  24
ENDBRANCH  15  23
BRANCH  17  26
HETATM   26  O5  UNL     1       1.060  53.026 -21.848  1.00  0.00    -0.359 OA
HETATM   27  H21 UNL     1       1.048  52.774 -20.896  1.00  0.00     0.217 HD
ENDBRANCH  17  26
BRANCH  11  28
HETATM   28  O2  UNL     1      -3.481  51.315 -24.480  1.00  0.00    -0.357 OA
HETATM   29  H14 UNL     1      -3.331  51.630 -25.393  1.00  0.00     0.217 HD
ENDBRANCH  11  28
TORSDOF 4
ENDMDL
