MODEL 1
REMARK minimizedAffinity -9.37189198
REMARK  7 active torsions:
REMARK  status: ('A' for Active; 'I' for Inactive)
REMARK    1  A    between atoms: C2_2  and  C4_4 
REMARK    2  A    between atoms: C7_7  and  O1_9 
REMARK    3  A    between atoms: C9_10  and  C10_11 
REMARK    4  A    between atoms: C11_12  and  C12_13 
REMARK    5  A    between atoms: C14_15  and  C15_16 
REMARK    6  A    between atoms: C24_26  and  C26_28 
REMARK    7  A    between atoms: C29_32  and  O4_34 
ROOT
HETATM    1  C15 UNL     1      -0.100   5.070  13.490  1.00  0.00     0.149 C 
HETATM    2  C16 UNL     1       0.237   6.422  14.130  1.00  0.00     0.054 C 
HETATM    3  C17 UNL     1       0.755   7.329  12.973  1.00  0.00     0.050 C 
HETATM    4  C18 UNL     1       1.326   6.207  12.082  1.00  0.00     0.272 C 
HETATM    5  O2  UNL     1       1.701   6.530  10.765  1.00  0.00    -0.360 OA
HETATM    6  C19 UNL     1       0.633   6.763   9.870  1.00  0.00     0.171 C 
HETATM    7  C20 UNL     1       0.344   8.245   9.779  1.00  0.00     0.027 C 
HETATM    8  C21 UNL     1      -0.268   8.899  11.013  1.00  0.00     0.012 C 
HETATM    9  C22 UNL     1      -0.473   8.073  12.311  1.00  0.00     0.032 C 
HETATM   10  C23 UNL     1      -1.129   9.034  13.336  1.00  0.00    -0.066 C 
HETATM   11  C24 UNL     1      -2.461   9.023  13.619  1.00  0.00    -0.021 C 
HETATM   12  C25 UNL     1      -3.480   8.103  12.992  1.00  0.00     0.052 C 
HETATM   13  C27 UNL     1      -0.123  10.008  13.939  1.00  0.00     0.038 C 
HETATM   14  C28 UNL     1       1.145   9.343  14.475  1.00  0.00     0.042 C 
HETATM   15  C29 UNL     1       1.810   8.371  13.475  1.00  0.00     0.067 C 
HETATM   16  C30 UNL     1       3.065   7.777  14.146  1.00  0.00     0.047 C 
HETATM   17  O5  UNL     1       0.369   5.132  12.134  1.00  0.00    -0.351 OA
ENDROOT
BRANCH   1  18
HETATM   18  C14 UNL     1      -1.570   4.777  13.465  1.00  0.00     0.011 C 
HETATM   19  C12 UNL     1      -2.339   4.386  12.423  1.00  0.00    -0.064 C 
HETATM   20  C13 UNL     1      -1.827   4.183  11.020  1.00  0.00     0.048 C 
BRANCH  19  21
HETATM   21  C11 UNL     1      -3.751   4.112  12.688  1.00  0.00     0.003 C 
HETATM   22  C10 UNL     1      -4.622   4.919  13.316  1.00  0.00    -0.018 C 
BRANCH  22  23
HETATM   23  C9  UNL     1      -6.097   4.637  13.536  1.00  0.00     0.050 C 
HETATM   24  C4  UNL     1      -6.906   4.086  12.327  1.00  0.00     0.024 C 
HETATM   25  C5  UNL     1      -8.356   4.433  12.689  1.00  0.00     0.013 C 
HETATM   26  C6  UNL     1      -8.228   5.860  13.210  1.00  0.00     0.039 C 
HETATM   27  C7  UNL     1      -6.946   5.842  14.069  1.00  0.00     0.062 C 
HETATM   28  C8  UNL     1      -6.272   7.216  14.062  1.00  0.00     0.046 C 
BRANCH  24  29
HETATM   29  C2  UNL     1      -6.669   2.617  12.016  1.00  0.00    -0.088 C 
HETATM   30  C1  UNL     1      -7.261   1.651  12.744  1.00  0.00     0.014 C 
HETATM   31  C3  UNL     1      -5.747   2.260  10.876  1.00  0.00     0.043 C 
ENDBRANCH  24  29
BRANCH  27  32
HETATM   32  O1  UNL     1      -7.340   5.557  15.422  1.00  0.00    -0.390 OA
HETATM   33  H14 UNL     1      -6.535   5.561  15.970  1.00  0.00     0.210 HD
ENDBRANCH  27  32
ENDBRANCH  22  23
ENDBRANCH  19  21
ENDBRANCH   1  18
BRANCH  15  34
HETATM   34  O4  UNL     1       2.298   9.139  12.367  1.00  0.00    -0.389 OA
HETATM   35  H44 UNL     1       2.972   9.761  12.691  1.00  0.00     0.210 HD
ENDBRANCH  15  34
BRANCH  11  36
HETATM   36  C26 UNL     1      -3.097   9.937  14.625  1.00  0.00     0.265 C 
HETATM   37  O3  UNL     1      -4.306   9.954  14.836  1.00  0.00    -0.302 OA
ENDBRANCH  11  36
TORSDOF 7
ENDMDL
