MODEL 1
REMARK minimizedAffinity -9.01319122
REMARK CNNscore 0.546580195
REMARK CNNaffinity 7.30574656
REMARK  11 active torsions:
REMARK  status: ('A' for Active; 'I' for Inactive)
REMARK    1  A    between atoms: C3_4  and  O2_5 
REMARK    2  A    between atoms: O2_5  and  C4_6 
REMARK    3  A    between atoms: C7_9  and  C8_10 
REMARK    4  A    between atoms: N1_11  and  C9_13 
REMARK    5  A    between atoms: C9_13  and  C10_14 
REMARK    6  A    between atoms: C10_14  and  C11_15 
REMARK    7  A    between atoms: C22_26  and  C23_27 
REMARK    8  A    between atoms: C29_35  and  O5_36 
REMARK    9  A    between atoms: C33_40  and  O6_41 
REMARK   10  A    between atoms: C36_44  and  O7_45 
REMARK   11  A    between atoms: C37_46  and  O8_47 
ROOT
HETATM    1  C4  UNL     1       0.715  11.371  15.940  1.00  0.00     0.127 C 
HETATM    2  C5  UNL     1       0.977  10.863  14.517  1.00  0.00     0.033 C 
HETATM    3  C6  UNL     1      -0.267  10.232  13.911  1.00  0.00     0.021 C 
HETATM    4  C7  UNL     1      -0.689   8.935  14.661  1.00  0.00     0.026 C 
HETATM    5  C17 UNL     1      -2.198   8.622  14.380  1.00  0.00     0.009 C 
HETATM    6  C18 UNL     1      -2.630   8.663  12.903  1.00  0.00     0.007 C 
HETATM    7  C19 UNL     1      -4.141   8.454  12.780  1.00  0.00     0.013 C 
HETATM    8  C20 UNL     1      -4.643   7.112  13.385  1.00  0.00    -0.005 C 
HETATM    9  C21 UNL     1      -4.196   5.969  12.452  1.00  0.00     0.019 C 
HETATM   10  C22 UNL     1      -6.202   7.196  13.564  1.00  0.00     0.028 C 
HETATM   11  C27 UNL     1      -6.389   7.895  14.931  1.00  0.00     0.013 C 
HETATM   12  C28 UNL     1      -5.053   7.834  15.681  1.00  0.00     0.040 C 
HETATM   13  C29 UNL     1      -4.124   6.945  14.845  1.00  0.00     0.070 C 
HETATM   14  C30 UNL     1      -2.613   7.269  15.012  1.00  0.00     0.026 C 
HETATM   15  C31 UNL     1      -2.110   7.125  16.467  1.00  0.00     0.011 C 
HETATM   16  C32 UNL     1      -1.605   8.436  17.062  1.00  0.00     0.039 C 
HETATM   17  C33 UNL     1      -0.483   9.101  16.228  1.00  0.00     0.073 C 
HETATM   18  C34 UNL     1      -0.396  10.587  16.652  1.00  0.00     0.071 C 
ENDROOT
BRANCH   1  19
HETATM   19  O2  UNL     1       1.923  11.269  16.704  1.00  0.00    -0.356 OA
BRANCH  19  20
HETATM   20  C3  UNL     1       1.690  11.300  18.120  1.00  0.00     0.263 C 
HETATM   21  O1  UNL     1       2.340  10.153  18.664  1.00  0.00    -0.354 OA
HETATM   22  C2  UNL     1       2.823  10.292  19.999  1.00  0.00     0.151 C 
HETATM   23  C1  UNL     1       1.667  10.387  20.997  1.00  0.00     0.042 C 
HETATM   24  C37 UNL     1       3.903  11.396  20.086  1.00  0.00     0.175 C 
HETATM   25  C36 UNL     1       3.714  12.495  19.019  1.00  0.00     0.154 C 
HETATM   26  C35 UNL     1       2.253  12.631  18.623  1.00  0.00     0.095 C 
BRANCH  24  27
HETATM   27  O8  UNL     1       3.926  11.970  21.396  1.00  0.00    -0.390 OA
HETATM   28  H51 UNL     1       4.711  12.550  21.440  1.00  0.00     0.210 HD
ENDBRANCH  24  27
BRANCH  25  29
HETATM   29  O7  UNL     1       4.522  12.211  17.867  1.00  0.00    -0.393 OA
HETATM   30  H49 UNL     1       4.030  11.570  17.311  1.00  0.00     0.210 HD
ENDBRANCH  25  29
ENDBRANCH  19  20
ENDBRANCH   1  19
BRANCH  17  31
HETATM   31  O6  UNL     1       0.755   8.489  16.608  1.00  0.00    -0.389 OA
HETATM   32  H43 UNL     1       0.847   8.548  17.581  1.00  0.00     0.210 HD
ENDBRANCH  17  31
BRANCH   4  33
HETATM   33  C8  UNL     1       0.159   7.747  14.161  1.00  0.00     0.068 C 
HETATM   34  N1  UNL     1       0.781   7.740  13.024  1.00  0.00    -0.401 N 
ATOM     35  H1  UNL     1       0.794   8.521  12.368  1.00  0.00     0.158 HD
BRANCH  34  36
HETATM   36  C9  UNL     1       1.469   6.453  12.807  1.00  0.00     0.123 C 
BRANCH  36  37
HETATM   37  C10 UNL     1       2.658   6.656  11.870  1.00  0.00     0.058 C 
BRANCH  37  38
HETATM   38  C11 UNL     1       2.196   7.094  10.503  1.00  0.00    -0.057 A 
HETATM   39  C12 UNL     1       3.102   7.172   9.433  1.00  0.00     0.007 A 
HETATM   40  C13 UNL     1       2.683   7.628   8.179  1.00  0.00     0.001 A 
HETATM   41  C14 UNL     1       1.359   8.019   7.983  1.00  0.00     0.000 A 
HETATM   42  C15 UNL     1       0.453   7.955   9.042  1.00  0.00     0.001 A 
HETATM   43  C16 UNL     1       0.868   7.493  10.297  1.00  0.00     0.007 A 
ENDBRANCH  37  38
ENDBRANCH  36  37
ENDBRANCH  34  36
ENDBRANCH   4  33
BRANCH  13  44
HETATM   44  O5  UNL     1      -4.342   5.606  15.301  1.00  0.00    -0.389 OA
HETATM   45  H37 UNL     1      -3.733   5.014  14.828  1.00  0.00     0.210 HD
ENDBRANCH  13  44
BRANCH  10  46
HETATM   46  C23 UNL     1      -6.979   5.908  13.442  1.00  0.00    -0.045 A 
HETATM   47  C24 UNL     1      -6.650   4.675  13.825  1.00  0.00     0.087 A 
HETATM   48  C25 UNL     1      -7.725   3.788  13.390  1.00  0.00     0.283 A 
HETATM   49  O3  UNL     1      -7.720   2.581  13.491  1.00  0.00    -0.260 OA
HETATM   50  O4  UNL     1      -8.702   4.525  12.800  1.00  0.00    -0.314 OA
HETATM   51  C26 UNL     1      -8.317   5.894  12.805  1.00  0.00     0.213 A 
ENDBRANCH  10  46
TORSDOF 11
ENDMDL
