MODEL 1
REMARK minimizedAffinity -8.6170826
REMARK CNNscore 0.473398089
REMARK CNNaffinity 6.90188932
REMARK  8 active torsions:
REMARK  status: ('A' for Active; 'I' for Inactive)
REMARK    1  A    between atoms: C2_2  and  C4_4 
REMARK    2  A    between atoms: C4_4  and  O1_5 
REMARK    3  A    between atoms: C4_4  and  C5_6 
REMARK    4  A    between atoms: C5_6  and  C6_7 
REMARK    5  A    between atoms: C6_7  and  C7_8 
REMARK    6  A    between atoms: C7_8  and  C9_10 
REMARK    7  A    between atoms: C12_13  and  C13_14 
REMARK    8  A    between atoms: C13_14  and  O3_16 
ROOT
HETATM    1  C9  UNL     1       0.805   7.796  12.659  1.00  0.00    -0.001 C 
HETATM    2  C10 UNL     1       1.113   8.696  13.895  1.00  0.00     0.007 C 
HETATM    3  C11 UNL     1      -0.158   8.757  14.759  1.00  0.00     0.022 C 
HETATM    4  C12 UNL     1      -1.064   7.639  14.199  1.00  0.00     0.057 C 
HETATM    5  C14 UNL     1      -2.580   7.847  14.445  1.00  0.00     0.014 C 
HETATM    6  C15 UNL     1      -3.032   7.687  15.902  1.00  0.00     0.007 C 
HETATM    7  C16 UNL     1      -4.517   8.029  16.030  1.00  0.00     0.007 C 
HETATM    8  C17 UNL     1      -5.362   6.952  15.337  1.00  0.00     0.010 C 
HETATM    9  C18 UNL     1      -6.906   7.183  15.392  1.00  0.00     0.018 C 
HETATM   10  C19 UNL     1      -7.403   7.155  16.849  1.00  0.00     0.023 C 
HETATM   11  C20 UNL     1      -7.359   8.498  14.739  1.00  0.00     0.023 C 
HETATM   12  C21 UNL     1      -7.607   6.035  14.645  1.00  0.00     0.135 C 
HETATM   13  O4  UNL     1      -8.830   6.012  14.495  1.00  0.00    -0.297 OA
HETATM   14  C22 UNL     1      -6.753   4.889  14.162  1.00  0.00     0.080 C 
HETATM   15  C23 UNL     1      -5.568   5.381  13.342  1.00  0.00     0.018 C 
HETATM   16  C24 UNL     1      -4.906   6.640  13.907  1.00  0.00    -0.026 A 
HETATM   17  C25 UNL     1      -4.655   7.752  12.914  1.00  0.00     0.021 A 
HETATM   18  C26 UNL     1      -3.459   7.018  13.479  1.00  0.00    -0.027 A 
HETATM   19  C27 UNL     1      -2.719   6.056  12.554  1.00  0.00     0.011 C 
HETATM   20  C28 UNL     1      -1.434   6.595  11.901  1.00  0.00     0.012 C 
HETATM   21  C29 UNL     1      -0.760   7.758  12.656  1.00  0.00    -0.022 C 
HETATM   22  C30 UNL     1      -1.293   9.080  12.014  1.00  0.00     0.017 C 
ENDROOT
BRANCH   1  23
HETATM   23  C7  UNL     1       1.584   8.263  11.389  1.00  0.00    -0.014 C 
HETATM   24  C8  UNL     1       0.677   8.366  10.160  1.00  0.00     0.010 C 
BRANCH  23  25
HETATM   25  C6  UNL     1       2.772   7.301  11.102  1.00  0.00     0.007 C 
BRANCH  25  26
HETATM   26  C5  UNL     1       2.370   5.943  10.496  1.00  0.00     0.036 C 
BRANCH  26  27
HETATM   27  C4  UNL     1       3.491   5.251   9.696  1.00  0.00     0.146 C 
BRANCH  27  28
HETATM   28  C2  UNL     1       3.213   5.212   8.198  1.00  0.00    -0.065 C 
HETATM   29  C1  UNL     1       3.596   4.216   7.378  1.00  0.00     0.016 C 
HETATM   30  C3  UNL     1       2.400   6.359   7.650  1.00  0.00     0.045 C 
ENDBRANCH  27  28
BRANCH  27  31
HETATM   31  O1  UNL     1       4.721   5.927   9.952  1.00  0.00    -0.391 OA
HETATM   32  H7  UNL     1       4.597   6.852   9.676  1.00  0.00     0.210 HD
ENDBRANCH  27  31
ENDBRANCH  26  27
ENDBRANCH  25  26
ENDBRANCH  23  25
ENDBRANCH   1  23
BRANCH   4  33
HETATM   33  C13 UNL     1      -0.578   6.305  14.826  1.00  0.00     0.149 C 
HETATM   34  O2  UNL     1      -0.640   5.184  14.348  1.00  0.00    -0.649 OA
BRANCH  33  35
HETATM   35  O3  UNL     1      -0.023   6.447  16.047  1.00  0.00    -0.776 OA
HETATM   36  H21 UNL     1       0.243   5.534  16.292  1.00  0.00     0.167 HD
ENDBRANCH  33  35
ENDBRANCH   4  33
TORSDOF 8
ENDMDL
