MODEL 1
REMARK minimizedAffinity -9.14509487
REMARK CNNscore 0.582592964
REMARK CNNaffinity 7.10416079
REMARK  9 active torsions:
REMARK  status: ('A' for Active; 'I' for Inactive)
REMARK    1  A    between atoms: C11_11  and  C13_13 
REMARK    2  A    between atoms: C13_13  and  O2_15 
REMARK    3  A    between atoms: C15_17  and  C16_18 
REMARK    4  A    between atoms: C16_18  and  C17_19 
REMARK    5  A    between atoms: C17_19  and  C18_20 
REMARK    6  A    between atoms: C19_21  and  C20_22 
REMARK    7  A    between atoms: C20_22  and  O3_23 
REMARK    8  A    between atoms: O3_23  and  C21_24 
REMARK    9  A    between atoms: C21_24  and  C22_26 
ROOT
HETATM    1  C16 UNL     1      -1.738  50.403 -24.059  1.00  0.00     0.014 C 
ENDROOT
BRANCH   1   2
HETATM    2  C15 UNL     1      -3.184  49.850 -23.934  1.00  0.00     0.022 C 
HETATM    3  C2  UNL     1      -3.651  48.978 -25.098  1.00  0.00    -0.084 C 
HETATM    4  C1  UNL     1      -2.886  48.458 -26.073  1.00  0.00     0.014 C 
HETATM    5  C3  UNL     1      -5.125  48.671 -25.043  1.00  0.00     0.034 C 
HETATM    6  C4  UNL     1      -5.429  47.891 -23.772  1.00  0.00     0.011 C 
HETATM    7  C5  UNL     1      -4.975  48.599 -22.470  1.00  0.00     0.012 C 
HETATM    8  C6  UNL     1      -3.471  49.101 -22.567  1.00  0.00    -0.032 C 
HETATM    9  C11 UNL     1      -5.997  49.650 -21.850  1.00  0.00     0.049 C 
HETATM   10  C7  UNL     1      -2.527  47.872 -22.436  1.00  0.00     0.016 C 
HETATM   11  C8  UNL     1      -3.199  49.996 -21.335  1.00  0.00     0.010 C 
HETATM   12  C9  UNL     1      -4.025  51.274 -21.326  1.00  0.00     0.002 C 
HETATM   13  C10 UNL     1      -5.449  51.098 -21.854  1.00  0.00     0.020 C 
HETATM   14  C12 UNL     1      -7.375  49.709 -22.553  1.00  0.00     0.026 C 
BRANCH   9  15
HETATM   15  C13 UNL     1      -6.346  49.158 -20.423  1.00  0.00     0.267 C 
HETATM   16  O1  UNL     1      -5.502  48.793 -19.609  1.00  0.00    -0.264 OA
BRANCH  15  17
HETATM   17  O2  UNL     1      -7.681  49.196 -20.163  1.00  0.00    -0.326 OA
HETATM   18  C14 UNL     1      -8.025  49.048 -18.785  1.00  0.00     0.213 C 
ENDBRANCH  15  17
ENDBRANCH   9  15
ENDBRANCH   1   2
BRANCH   1  19
HETATM   19  C17 UNL     1      -1.673  51.689 -24.901  1.00  0.00     0.042 C 
BRANCH  19  20
HETATM   20  C18 UNL     1      -0.340  51.870 -25.554  1.00  0.00    -0.024 A 
HETATM   21  C19 UNL     1       0.700  52.696 -25.152  1.00  0.00     0.083 A 
HETATM   22  O5  UNL     1       1.753  52.575 -26.014  1.00  0.00    -0.324 OA
HETATM   23  C28 UNL     1       1.397  51.673 -26.960  1.00  0.00     0.143 A 
HETATM   24  C29 UNL     1       0.125  51.210 -26.727  1.00  0.00     0.034 A 
BRANCH  21  25
HETATM   25  C20 UNL     1       0.886  53.661 -24.035  1.00  0.00     0.244 C 
BRANCH  25  26
HETATM   26  O3  UNL     1       0.852  52.906 -22.815  1.00  0.00    -0.311 OA
BRANCH  26  27
HETATM   27  C21 UNL     1       1.130  53.585 -21.678  1.00  0.00     0.293 C 
HETATM   28  O4  UNL     1       1.598  54.710 -21.598  1.00  0.00    -0.259 OA
BRANCH  27  29
HETATM   29  C22 UNL     1       0.758  52.766 -20.489  1.00  0.00     0.039 A 
HETATM   30  C23 UNL     1       1.158  53.216 -19.222  1.00  0.00     0.019 A 
HETATM   31  C24 UNL     1       0.819  52.490 -18.076  1.00  0.00     0.025 A 
HETATM   32  C25 UNL     1       0.083  51.311 -18.192  1.00  0.00     0.034 A 
HETATM   33 CL1  UNL     1      -0.328  50.413 -16.784  1.00  0.00    -0.084 Cl
HETATM   34  C26 UNL     1      -0.317  50.850 -19.446  1.00  0.00     0.025 A 
HETATM   35  C27 UNL     1       0.018  51.577 -20.593  1.00  0.00     0.019 A 
ENDBRANCH  27  29
ENDBRANCH  26  27
ENDBRANCH  25  26
ENDBRANCH  21  25
ENDBRANCH  19  20
ENDBRANCH   1  19
TORSDOF 9
ENDMDL
