MODEL 1
REMARK minimizedAffinity -8.03749466
REMARK CNNscore 0.620087028
REMARK CNNaffinity 6.62861967
REMARK  12 active torsions:
REMARK  status: ('A' for Active; 'I' for Inactive)
REMARK    1  A    between atoms: C3_3  and  O1_4 
REMARK    2  A    between atoms: N1_14  and  O2_16 
REMARK    3  A    between atoms: O2_16  and  C13_17 
REMARK    4  A    between atoms: C13_17  and  C14_18 
REMARK       I    between atoms: C14_18  and  N2_20 
REMARK    5  A    between atoms: N2_20  and  C15_21 
REMARK    6  A    between atoms: C15_21  and  C16_22 
REMARK    7  A    between atoms: C15_21  and  C23_33 
REMARK       I    between atoms: C16_22  and  N3_24 
REMARK    8  A    between atoms: N3_24  and  C17_25 
REMARK    9  A    between atoms: C17_25  and  C18_26 
REMARK   10  A    between atoms: C17_25  and  C19_29 
REMARK   11  A    between atoms: C18_26  and  O6_28 
REMARK   12  A    between atoms: C19_29  and  C21_31 
ROOT
HETATM    1  C1  UNL     1      -2.829   5.303  12.500  1.00  0.00     0.015 C 
HETATM    2  C2  UNL     1      -3.149   6.311  13.071  1.00  0.00    -0.078 C 
HETATM    3  C3  UNL     1      -3.546   7.560  13.750  1.00  0.00     0.128 C 
HETATM    4  C4  UNL     1      -4.927   8.031  13.251  1.00  0.00     0.052 C 
HETATM    5  C5  UNL     1      -5.610   8.738  14.425  1.00  0.00     0.010 C 
HETATM    6  C6  UNL     1      -4.679   8.613  15.640  1.00  0.00     0.002 C 
HETATM    7  C7  UNL     1      -4.055   9.952  16.116  1.00  0.00    -0.004 C 
HETATM    8  C8  UNL     1      -3.512  10.916  15.043  1.00  0.00     0.010 C 
HETATM    9  C9  UNL     1      -3.122  12.258  15.658  1.00  0.00     0.035 C 
HETATM   10  C10 UNL     1      -2.134  12.109  16.790  1.00  0.00    -0.069 C 
HETATM   11  C11 UNL     1      -1.068  12.927  16.858  1.00  0.00     0.030 C 
HETATM   12  C12 UNL     1      -0.140  12.923  18.020  1.00  0.00     0.032 C 
HETATM   13  N1  UNL     1       0.903  13.703  17.962  1.00  0.00    -0.271 N 
ATOM     14  H1  UNL     1       1.127  14.301  17.167  1.00  0.00     0.194 HD
HETATM   15  C26 UNL     1      -0.503  12.055  19.210  1.00  0.00     0.060 C 
HETATM   16  C27 UNL     1      -1.190  10.784  18.722  1.00  0.00     0.020 C 
HETATM   17  C28 UNL     1      -2.447  11.045  17.845  1.00  0.00    -0.016 C 
HETATM   18  C29 UNL     1      -3.563  11.611  18.763  1.00  0.00     0.020 C 
HETATM   19  C30 UNL     1      -2.970   9.690  17.197  1.00  0.00     0.002 C 
HETATM   20  C31 UNL     1      -1.881   8.783  16.583  1.00  0.00     0.007 C 
HETATM   21  C32 UNL     1      -2.426   7.431  16.113  1.00  0.00     0.014 C 
HETATM   22  C33 UNL     1      -3.733   7.431  15.295  1.00  0.00     0.003 C 
HETATM   23  C34 UNL     1      -4.484   6.105  15.640  1.00  0.00     0.020 C 
ENDROOT
BRANCH   3  24
HETATM   24  O1  UNL     1      -2.543   8.517  13.436  1.00  0.00    -0.377 OA
HETATM   25  H2  UNL     1      -2.929   9.186  12.838  1.00  0.00     0.211 HD
ENDBRANCH   3  24
BRANCH  13  26
HETATM   26  O2  UNL     1       1.678  13.617  19.127  1.00  0.00    -0.271 OA
BRANCH  26  27
HETATM   27  C13 UNL     1       3.034  13.371  18.760  1.00  0.00     0.303 C 
BRANCH  27  28
HETATM   28  C14 UNL     1       3.591  12.188  19.550  1.00  0.00     0.244 C 
HETATM   29  O3  UNL     1       3.537  11.033  19.131  1.00  0.00    -0.271 OA
HETATM   30  N2  UNL     1       4.189  12.524  20.750  1.00  0.00    -0.346 N 
HETATM   31  H16 UNL     1       4.487  13.495  20.821  1.00  0.00     0.163 HD
BRANCH  30  32
HETATM   32  C15 UNL     1       4.985  11.542  21.474  1.00  0.00     0.180 C 
BRANCH  32  33
HETATM   33  C16 UNL     1       6.390  12.140  21.720  1.00  0.00     0.241 C 
HETATM   34  O4  UNL     1       7.267  12.144  20.857  1.00  0.00    -0.271 OA
HETATM   35  N3  UNL     1       6.568  12.701  22.969  1.00  0.00    -0.344 N 
HETATM   36  H18 UNL     1       5.727  12.955  23.476  1.00  0.00     0.163 HD
BRANCH  35  37
HETATM   37  C17 UNL     1       7.784  13.465  23.278  1.00  0.00     0.186 C 
BRANCH  37  38
HETATM   38  C18 UNL     1       8.979  12.564  22.952  1.00  0.00     0.163 C 
HETATM   39  O5  UNL     1       9.146  11.415  23.339  1.00  0.00    -0.648 OA
BRANCH  38  40
HETATM   40  O6  UNL     1       9.880  13.146  22.138  1.00  0.00    -0.775 OA
HETATM   41  H20 UNL     1      10.590  12.479  22.035  1.00  0.00     0.167 HD
ENDBRANCH  38  40
ENDBRANCH  37  38
BRANCH  37  42
HETATM   42  C19 UNL     1       7.801  14.813  22.520  1.00  0.00     0.014 C 
HETATM   43  C20 UNL     1       8.798  14.829  21.350  1.00  0.00     0.012 C 
BRANCH  42  44
HETATM   44  C21 UNL     1       8.076  16.036  23.420  1.00  0.00     0.002 C 
HETATM   45  C22 UNL     1       8.526  17.275  22.654  1.00  0.00     0.005 C 
ENDBRANCH  42  44
ENDBRANCH  37  42
ENDBRANCH  35  37
ENDBRANCH  32  33
BRANCH  32  46
HETATM   46  C23 UNL     1       4.323  11.090  22.797  1.00  0.00     0.009 C 
HETATM   47  C24 UNL     1       3.071  11.899  23.154  1.00  0.00     0.012 C 
HETATM   48  C25 UNL     1       3.978   9.598  22.753  1.00  0.00     0.012 C 
ENDBRANCH  32  46
ENDBRANCH  30  32
ENDBRANCH  27  28
ENDBRANCH  26  27
ENDBRANCH  13  26
TORSDOF 12
ENDMDL
