MODEL 1
REMARK minimizedAffinity -9.57560921
REMARK  7 active torsions:
REMARK  status: ('A' for Active; 'I' for Inactive)
REMARK    1  A    between atoms: C2_2  and  C30_32 
REMARK    2  A    between atoms: C3_3  and  C4_4 
REMARK    3  A    between atoms: C4_4  and  O1_5 
REMARK    4  A    between atoms: C4_4  and  C5_6 
REMARK    5  A    between atoms: C5_6  and  C6_7 
REMARK    6  A    between atoms: C6_7  and  C8_9 
REMARK    7  A    between atoms: C30_32  and  O3_33 
ROOT
HETATM    1  C8  UNL     1       0.621   7.501  12.379  1.00  0.00    -0.002 C 
HETATM    2  C9  UNL     1       0.562   6.267  11.426  1.00  0.00     0.007 C 
HETATM    3  C10 UNL     1      -0.811   5.595  11.619  1.00  0.00     0.015 C 
HETATM    4  C11 UNL     1      -1.387   6.246  12.890  1.00  0.00    -0.013 C 
HETATM    5  C12 UNL     1      -0.755   5.470  14.092  1.00  0.00     0.021 C 
HETATM    6  C13 UNL     1      -2.897   6.194  13.102  1.00  0.00    -0.070 C 
HETATM    7  C14 UNL     1      -3.645   5.160  12.678  1.00  0.00    -0.022 C 
HETATM    8  C15 UNL     1      -5.104   4.991  12.968  1.00  0.00     0.034 C 
HETATM    9  C16 UNL     1      -5.794   6.230  13.583  1.00  0.00     0.013 C 
HETATM   10  C17 UNL     1      -7.260   5.931  14.071  1.00  0.00     0.018 C 
HETATM   11  C18 UNL     1      -7.463   4.534  14.693  1.00  0.00     0.023 C 
HETATM   12  C19 UNL     1      -8.231   6.040  12.876  1.00  0.00     0.023 C 
HETATM   13  C20 UNL     1      -7.692   6.992  15.087  1.00  0.00     0.135 C 
HETATM   14  O2  UNL     1      -8.563   6.790  15.934  1.00  0.00    -0.297 OA
HETATM   15  C21 UNL     1      -7.059   8.348  14.949  1.00  0.00     0.080 C 
HETATM   16  C22 UNL     1      -5.551   8.274  15.135  1.00  0.00     0.017 C 
HETATM   17  C23 UNL     1      -4.867   6.964  14.625  1.00  0.00    -0.031 C 
HETATM   18  C24 UNL     1      -4.572   6.066  15.851  1.00  0.00     0.016 C 
HETATM   19  C25 UNL     1      -3.526   7.353  13.876  1.00  0.00     0.024 C 
HETATM   20  C26 UNL     1      -2.489   8.100  14.751  1.00  0.00     0.010 C 
HETATM   21  C27 UNL     1      -1.185   8.510  14.023  1.00  0.00     0.011 C 
HETATM   22  C28 UNL     1      -0.890   7.728  12.725  1.00  0.00    -0.029 C 
HETATM   23  C29 UNL     1      -1.551   8.477  11.523  1.00  0.00     0.016 C 
ENDROOT
BRANCH   1  24
HETATM   24  C6  UNL     1       1.488   8.660  11.787  1.00  0.00    -0.011 C 
HETATM   25  C7  UNL     1       2.357   9.331  12.854  1.00  0.00     0.010 C 
BRANCH  24  26
HETATM   26  C5  UNL     1       2.350   8.113  10.607  1.00  0.00     0.040 C 
BRANCH  26  27
HETATM   27  C4  UNL     1       3.746   7.584  10.986  1.00  0.00     0.141 C 
BRANCH  27  28
HETATM   28  C3  UNL     1       3.923   6.137  10.589  1.00  0.00     0.009 C 
HETATM   29  C2  UNL     1       3.532   5.564   9.428  1.00  0.00    -0.062 C 
HETATM   30  C1  UNL     1       2.796   6.293   8.335  1.00  0.00     0.045 C 
BRANCH  29  31
HETATM   31  C30 UNL     1       3.810   4.113   9.145  1.00  0.00     0.198 C 
BRANCH  31  32
HETATM   32  O3  UNL     1       2.988   3.326   9.994  1.00  0.00    -0.397 OA
HETATM   33  H48 UNL     1       3.202   2.397   9.805  1.00  0.00     0.209 HD
ENDBRANCH  31  32
ENDBRANCH  29  31
ENDBRANCH  27  28
BRANCH  27  34
HETATM   34  O1  UNL     1       3.911   7.687  12.398  1.00  0.00    -0.392 OA
HETATM   35  H6  UNL     1       3.696   6.821  12.784  1.00  0.00     0.210 HD
ENDBRANCH  27  34
ENDBRANCH  26  27
ENDBRANCH  24  26
ENDBRANCH   1  24
TORSDOF 7
ENDMDL
