MODEL 1
REMARK minimizedAffinity -8.01467514
REMARK CNNscore 0.745570779
REMARK CNNaffinity 6.78385162
REMARK  10 active torsions:
REMARK  status: ('A' for Active; 'I' for Inactive)
REMARK    1  A    between atoms: O1_2  and  C2_3 
REMARK    2  A    between atoms: C2_3  and  C3_4 
REMARK    3  A    between atoms: C2_3  and  C26_35 
REMARK    4  A    between atoms: C3_4  and  C4_5 
REMARK    5  A    between atoms: C4_5  and  C5_6 
REMARK    6  A    between atoms: C5_6  and  C7_8 
REMARK    7  A    between atoms: C13_17  and  C14_18 
REMARK    8  A    between atoms: C14_18  and  O5_19 
REMARK    9  A    between atoms: C17_24  and  O8_25 
REMARK   10  A    between atoms: C30_39  and  O10_40 
ROOT
HETATM    1  C7  UNL     1      -3.746   9.433  14.939  1.00  0.00     0.135 C 
HETATM    2  O2  UNL     1      -2.522   8.672  14.978  1.00  0.00    -0.348 OA
HETATM    3  C8  UNL     1      -1.401   9.115  14.175  1.00  0.00     0.177 C 
HETATM    4  C9  UNL     1      -1.562  10.609  13.876  1.00  0.00     0.102 C 
HETATM    5  C10 UNL     1      -2.058  11.291  15.154  1.00  0.00     0.143 C 
HETATM    6  O3  UNL     1      -1.804  12.696  14.998  1.00  0.00    -0.315 OA
HETATM    7  C11 UNL     1      -1.238  13.280  16.095  1.00  0.00     0.261 C 
HETATM    8  O4  UNL     1      -1.465  12.974  17.258  1.00  0.00    -0.265 OA
HETATM    9  C12 UNL     1      -0.164  14.242  15.682  1.00  0.00     0.145 C 
HETATM   10  C13 UNL     1       1.183  13.565  15.950  1.00  0.00     0.164 C 
HETATM   11  O6  UNL     1       1.357  12.476  15.005  1.00  0.00    -0.313 OA
HETATM   12  C15 UNL     1       1.595  11.232  15.509  1.00  0.00     0.264 C 
HETATM   13  O7  UNL     1       1.698  10.950  16.696  1.00  0.00    -0.265 OA
HETATM   14  C16 UNL     1       1.770  10.242  14.385  1.00  0.00     0.179 C 
HETATM   15  C17 UNL     1       1.064   8.901  14.654  1.00  0.00     0.177 C 
HETATM   16  O9  UNL     1      -0.283   9.011  15.078  1.00  0.00    -0.318 OA
HETATM   17  C18 UNL     1       1.237   7.979  13.417  1.00  0.00     0.045 C 
HETATM   18  C19 UNL     1       2.437   7.027  13.493  1.00  0.00     0.015 C 
HETATM   19  C20 UNL     1      -0.047   7.200  13.148  1.00  0.00     0.024 C 
HETATM   20  C21 UNL     1      -1.245   8.158  12.924  1.00  0.00     0.010 C 
HETATM   21  C22 UNL     1      -1.039   8.935  11.599  1.00  0.00     0.020 C 
HETATM   22  C23 UNL     1      -2.474   7.249  12.689  1.00  0.00     0.020 C 
HETATM   23  C24 UNL     1      -3.540  10.939  15.309  1.00  0.00     0.041 C 
HETATM   24  C25 UNL     1      -4.084  11.433  16.647  1.00  0.00     0.015 C 
ENDROOT
BRANCH   1  25
HETATM   25  C5  UNL     1      -4.847   8.656  15.731  1.00  0.00     0.011 C 
HETATM   26  C6  UNL     1      -6.239   9.145  15.292  1.00  0.00     0.012 C 
BRANCH  25  27
HETATM   27  C4  UNL     1      -4.749   7.126  15.526  1.00  0.00     0.009 C 
BRANCH  27  28
HETATM   28  C3  UNL     1      -6.058   6.315  15.572  1.00  0.00     0.037 C 
BRANCH  28  29
HETATM   29  C2  UNL     1      -6.832   6.123  14.250  1.00  0.00     0.153 C 
BRANCH  29  30
HETATM   30  O1  UNL     1      -8.241   6.226  14.508  1.00  0.00    -0.386 OA
HETATM   31  C1  UNL     1      -8.539   6.345  15.893  1.00  0.00     0.202 C 
ENDBRANCH  29  30
BRANCH  29  32
HETATM   32  C26 UNL     1      -6.525   4.844  13.481  1.00  0.00    -0.027 A 
HETATM   33  C27 UNL     1      -5.308   4.689  12.795  1.00  0.00     0.010 A 
HETATM   34  C28 UNL     1      -5.032   3.523  12.074  1.00  0.00     0.003 A 
HETATM   35  C29 UNL     1      -5.974   2.501  12.010  1.00  0.00     0.036 A 
HETATM   36  C30 UNL     1      -7.190   2.653  12.660  1.00  0.00     0.066 A 
HETATM   37  C31 UNL     1      -7.476   3.811  13.383  1.00  0.00     0.046 A 
BRANCH  36  38
HETATM   38  O10 UNL     1      -8.091   1.634  12.575  1.00  0.00    -0.361 OA
HETATM   39  H45 UNL     1      -8.864   1.868  13.115  1.00  0.00     0.217 HD
ENDBRANCH  36  38
ENDBRANCH  29  32
ENDBRANCH  28  29
ENDBRANCH  27  28
ENDBRANCH  25  27
ENDBRANCH   1  25
BRANCH  15  40
HETATM   40  O8  UNL     1       1.733   8.276  15.752  1.00  0.00    -0.364 OA
HETATM   41  H25 UNL     1       1.566   8.855  16.521  1.00  0.00     0.213 HD
ENDBRANCH  15  40
BRANCH  10  42
HETATM   42  C14 UNL     1       2.350  14.533  15.745  1.00  0.00     0.197 C 
BRANCH  42  43
HETATM   43  O5  UNL     1       2.691  14.642  14.370  1.00  0.00    -0.398 OA
HETATM   44  H22 UNL     1       3.310  15.388  14.284  1.00  0.00     0.209 HD
ENDBRANCH  42  43
ENDBRANCH  10  42
TORSDOF 10
ENDMDL
