MODEL 1
REMARK minimizedAffinity -9.84048653
REMARK  4 active torsions:
REMARK  status: ('A' for Active; 'I' for Inactive)
REMARK    1  A    between atoms: C14_16  and  C15_17 
REMARK    2  A    between atoms: C15_17  and  C17_19 
REMARK    3  A    between atoms: C17_19  and  C18_20 
REMARK    4  A    between atoms: C18_20  and  C19_22 
ROOT
HETATM    1  C1  UNL     1      -0.072   6.007  10.691  1.00  0.00     0.017 C 
HETATM    2  C2  UNL     1      -0.571   5.131  11.587  1.00  0.00    -0.060 C 
HETATM    3  C3  UNL     1       0.101   3.793  11.790  1.00  0.00     0.212 C 
HETATM    4  O1  UNL     1      -0.769   2.660  11.962  1.00  0.00    -0.317 OA
HETATM    5  C4  UNL     1      -1.641   2.237  11.017  1.00  0.00     0.259 C 
HETATM    6  O2  UNL     1      -1.981   1.059  10.951  1.00  0.00    -0.265 OA
HETATM    7  C5  UNL     1      -2.251   3.277  10.118  1.00  0.00     0.112 C 
HETATM    8  C6  UNL     1      -3.323   4.112  10.825  1.00  0.00     0.020 C 
HETATM    9  C7  UNL     1      -3.010   4.540  12.263  1.00  0.00    -0.024 A 
HETATM   10  C8  UNL     1      -3.305   3.531  13.353  1.00  0.00     0.022 A 
HETATM   11  C9  UNL     1      -4.170   4.773  13.276  1.00  0.00    -0.027 A 
HETATM   12  C10 UNL     1      -5.643   4.402  12.970  1.00  0.00     0.011 C 
HETATM   13  C11 UNL     1      -6.681   5.529  13.068  1.00  0.00     0.011 C 
HETATM   14  C12 UNL     1      -6.499   6.355  14.346  1.00  0.00    -0.032 C 
HETATM   15  C13 UNL     1      -6.768   5.435  15.568  1.00  0.00     0.016 C 
HETATM   16  C14 UNL     1      -7.359   7.652  14.468  1.00  0.00    -0.002 C 
HETATM   17  C23 UNL     1      -6.498   8.573  15.382  1.00  0.00     0.006 C 
HETATM   18  C24 UNL     1      -5.090   7.957  15.455  1.00  0.00     0.011 C 
HETATM   19  C25 UNL     1      -5.036   6.949  14.295  1.00  0.00    -0.032 C 
HETATM   20  C26 UNL     1      -4.730   7.766  12.989  1.00  0.00     0.016 C 
HETATM   21  C27 UNL     1      -3.978   5.806  14.429  1.00  0.00     0.004 C 
HETATM   22  C28 UNL     1      -2.548   6.368  14.641  1.00  0.00     0.007 C 
HETATM   23  C29 UNL     1      -1.415   5.721  13.859  1.00  0.00     0.010 C 
HETATM   24  C30 UNL     1      -1.809   5.490  12.396  1.00  0.00     0.025 C 
ENDROOT
BRANCH  16  25
HETATM   25  C15 UNL     1      -8.872   7.648  14.843  1.00  0.00    -0.007 C 
HETATM   26  C16 UNL     1      -9.233   7.585  16.334  1.00  0.00     0.011 C 
BRANCH  25  27
HETATM   27  C17 UNL     1      -9.649   6.566  14.067  1.00  0.00     0.087 C 
BRANCH  27  28
HETATM   28  C18 UNL     1     -11.015   7.055  13.609  1.00  0.00     0.149 C 
HETATM   29  O3  UNL     1     -11.154   7.830  12.667  1.00  0.00    -0.293 OA
BRANCH  28  30
HETATM   30  C19 UNL     1     -12.193   6.508  14.345  1.00  0.00     0.052 C 
HETATM   31  C20 UNL     1     -13.476   6.823  14.084  1.00  0.00    -0.084 C 
HETATM   32  C21 UNL     1     -13.937   7.806  13.037  1.00  0.00     0.043 C 
HETATM   33  C22 UNL     1     -14.593   6.193  14.875  1.00  0.00     0.043 C 
ENDBRANCH  28  30
ENDBRANCH  27  28
ENDBRANCH  25  27
ENDBRANCH  16  25
TORSDOF 4
ENDMDL
