MODEL 1
REMARK minimizedAffinity -9.88864422
REMARK CNNscore 0.718187332
REMARK CNNaffinity 7.38232994
REMARK  7 active torsions:
REMARK  status: ('A' for Active; 'I' for Inactive)
REMARK    1  A    between atoms: C6_7  and  O1_8 
REMARK    2  A    between atoms: C8_11  and  C9_12 
REMARK    3  A    between atoms: C9_12  and  O3_13 
REMARK    4  A    between atoms: C9_12  and  C10_14 
REMARK    5  A    between atoms: C10_14  and  O4_16 
REMARK    6  A    between atoms: C10_14  and  C12_17 
REMARK    7  A    between atoms: C19_25  and  C20_26 
ROOT
HETATM    1  C12 UNL     1      -1.959   8.542  14.743  1.00  0.00     0.034 C 
HETATM    2  C13 UNL     1      -2.026   7.671  16.030  1.00  0.00     0.012 C 
HETATM    3  C14 UNL     1      -1.479   8.535  17.180  1.00  0.00     0.044 C 
HETATM    4  C15 UNL     1      -1.562   9.985  16.664  1.00  0.00     0.093 C 
HETATM    5  O5  UNL     1      -2.932  10.448  16.585  1.00  0.00    -0.363 OA
HETATM    6  C16 UNL     1      -3.807  10.307  17.701  1.00  0.00     0.263 C 
HETATM    7  C17 UNL     1      -4.107  11.595  18.344  1.00  0.00    -0.080 C 
HETATM    8  C18 UNL     1      -4.419  12.616  18.899  1.00  0.00    -0.093 C 
HETATM    9  C19 UNL     1      -4.814  13.886  19.561  1.00  0.00     0.121 C 
HETATM   10  C26 UNL     1      -3.616  14.587  20.254  1.00  0.00     0.190 C 
HETATM   11  O6  UNL     1      -2.813  15.365  19.350  1.00  0.00    -0.384 OA
HETATM   12  C27 UNL     1      -1.846  14.610  18.625  1.00  0.00     0.122 C 
HETATM   13  C28 UNL     1      -1.489  15.363  17.341  1.00  0.00     0.033 C 
HETATM   14  C29 UNL     1      -0.151  14.930  16.725  1.00  0.00     0.013 C 
HETATM   15  C30 UNL     1       0.296  13.497  17.126  1.00  0.00    -0.026 C 
HETATM   16  C31 UNL     1       1.731  13.276  16.572  1.00  0.00     0.016 C 
HETATM   17  C32 UNL     1       0.415  13.460  18.683  1.00  0.00     0.071 C 
HETATM   18  C33 UNL     1      -0.603  14.322  19.450  1.00  0.00     0.045 C 
HETATM   19  C34 UNL     1       0.448  12.056  19.253  1.00  0.00     0.154 C 
HETATM   20  O7  UNL     1       0.962  11.817  20.346  1.00  0.00    -0.293 OA
HETATM   21  C35 UNL     1      -0.202  10.951  18.529  1.00  0.00     0.057 C 
HETATM   22  C36 UNL     1      -0.758  11.101  17.317  1.00  0.00    -0.036 C 
HETATM   23  C37 UNL     1      -0.710  12.418  16.533  1.00  0.00     0.026 C 
HETATM   24  C38 UNL     1      -0.538  12.232  14.994  1.00  0.00     0.011 C 
HETATM   25  C39 UNL     1      -1.323  11.061  14.393  1.00  0.00     0.014 C 
HETATM   26  C40 UNL     1      -1.060   9.760  15.182  1.00  0.00    -0.002 C 
HETATM   27  C41 UNL     1       0.451   9.402  15.105  1.00  0.00     0.019 C 
ENDROOT
BRANCH   1  28
HETATM   28  C10 UNL     1      -1.673   7.767  13.406  1.00  0.00     0.087 C 
HETATM   29  C11 UNL     1      -2.897   7.123  12.752  1.00  0.00     0.049 C 
BRANCH  28  30
HETATM   30  C9  UNL     1      -0.844   8.627  12.378  1.00  0.00     0.181 C 
BRANCH  30  31
HETATM   31  C8  UNL     1       0.244   7.936  11.532  1.00  0.00     0.158 C 
HETATM   32  C2  UNL     1       0.640   8.505  10.168  1.00  0.00     0.020 C 
HETATM   33  C1  UNL     1      -0.561   8.866   9.282  1.00  0.00     0.013 C 
HETATM   34  C3  UNL     1       1.371   7.309   9.539  1.00  0.00     0.027 C 
HETATM   35  C4  UNL     1       2.893   7.343   9.704  1.00  0.00     0.038 C 
HETATM   36  C7  UNL     1       0.759   6.078  10.216  1.00  0.00     0.185 C 
HETATM   37  C5  UNL     1       3.466   5.969   9.349  1.00  0.00     0.273 C 
HETATM   38  N1  UNL     1       3.036   4.927  10.265  1.00  0.00     0.114 N 
HETATM   39  C6  UNL     1       1.792   5.184  10.956  1.00  0.00     0.383 C 
HETATM   40  H10 UNL     1       2.964   4.023   9.807  1.00  0.00     0.319 HD
HETATM   41  O2  UNL     1      -0.189   6.591  11.181  1.00  0.00    -0.373 OA
BRANCH  39  42
HETATM   42  O1  UNL     1       1.186   3.926  11.228  1.00  0.00    -0.366 OA
HETATM   43  H12 UNL     1       0.382   4.146  11.737  1.00  0.00     0.212 HD
ENDBRANCH  39  42
ENDBRANCH  30  31
BRANCH  30  44
HETATM   44  O3  UNL     1      -1.808   9.196  11.449  1.00  0.00    -0.390 OA
HETATM   45  H16 UNL     1      -2.632   9.323  11.958  1.00  0.00     0.210 HD
ENDBRANCH  30  44
ENDBRANCH  28  30
BRANCH  28  46
HETATM   46  O4  UNL     1      -0.785   6.668  13.731  1.00  0.00    -0.387 OA
HETATM   47  H20 UNL     1      -0.639   6.139  12.925  1.00  0.00     0.210 HD
ENDBRANCH  28  46
ENDBRANCH   1  28
BRANCH   9  48
HETATM   48  C20 UNL     1      -5.938  13.644  20.561  1.00  0.00    -0.040 A 
HETATM   49  C21 UNL     1      -5.673  13.414  21.922  1.00  0.00     0.008 A 
HETATM   50  C22 UNL     1      -6.719  13.250  22.834  1.00  0.00     0.001 A 
HETATM   51  C23 UNL     1      -8.039  13.309  22.399  1.00  0.00     0.000 A 
HETATM   52  C24 UNL     1      -8.319  13.523  21.050  1.00  0.00     0.001 A 
HETATM   53  C25 UNL     1      -7.275  13.686  20.135  1.00  0.00     0.008 A 
ENDBRANCH   9  48
TORSDOF 7
ENDMDL
