MODEL 1
REMARK minimizedAffinity -8.97538662
REMARK CNNscore 0.666805089
REMARK CNNaffinity 7.06619263
REMARK  13 active torsions:
REMARK  status: ('A' for Active; 'I' for Inactive)
REMARK    1  A    between atoms: C19_20  and  O2_21 
REMARK    2  A    between atoms: C19_20  and  C20_22 
REMARK    3  A    between atoms: C20_22  and  C21_24 
REMARK    4  A    between atoms: C21_24  and  O4_25 
REMARK    5  A    between atoms: O4_25  and  C22_26 
REMARK    6  A    between atoms: C22_26  and  C23_28 
REMARK    7  A    between atoms: C23_28  and  C24_29 
REMARK    8  A    between atoms: C24_29  and  C25_30 
REMARK       I    between atoms: C25_30  and  N1_32 
REMARK    9  A    between atoms: N1_32  and  C26_33 
REMARK   10  A    between atoms: C26_33  and  C27_34 
REMARK   11  A    between atoms: C26_33  and  C36_44 
REMARK   12  A    between atoms: C27_34  and  C28_35 
REMARK   13  A    between atoms: C36_44  and  O8_46 
ROOT
HETATM    1  C21 UNL     1      -1.362  49.062 -16.337  1.00  0.00     0.260 C 
ENDROOT
BRANCH   1   2
HETATM    2  C20 UNL     1      -1.813  48.882 -17.798  1.00  0.00     0.185 C 
HETATM    3  O3  UNL     1      -2.304  47.794 -18.132  1.00  0.00    -0.292 OA
BRANCH   2   4
HETATM    4  C19 UNL     1      -1.765  50.085 -18.794  1.00  0.00     0.128 C 
HETATM    5  C14 UNL     1      -2.845  50.025 -19.930  1.00  0.00    -0.002 C 
HETATM    6  C13 UNL     1      -2.982  51.391 -20.659  1.00  0.00     0.013 C 
HETATM    7  C15 UNL     1      -4.232  49.650 -19.379  1.00  0.00     0.019 C 
HETATM    8  C16 UNL     1      -2.255  48.948 -20.880  1.00  0.00     0.002 C 
HETATM    9  C12 UNL     1      -3.647  51.299 -22.037  1.00  0.00     0.007 C 
HETATM   10  C11 UNL     1      -2.871  50.350 -22.969  1.00  0.00     0.002 C 
HETATM   11  C2  UNL     1      -3.355  50.288 -24.479  1.00  0.00    -0.016 C 
HETATM   12  C10 UNL     1      -2.786  48.935 -22.333  1.00  0.00    -0.004 C 
HETATM   13  C1  UNL     1      -4.165  51.538 -24.884  1.00  0.00     0.020 C 
HETATM   14  C3  UNL     1      -2.090  50.191 -25.382  1.00  0.00     0.022 C 
HETATM   15  C7  UNL     1      -4.211  49.052 -24.743  1.00  0.00    -0.068 C 
HETATM   16  C4  UNL     1      -2.404  49.945 -26.856  1.00  0.00     0.084 C 
HETATM   17  C5  UNL     1      -3.350  48.785 -27.041  1.00  0.00     0.149 C 
HETATM   18  O1  UNL     1      -3.454  48.194 -28.114  1.00  0.00    -0.293 OA
HETATM   19  C6  UNL     1      -4.205  48.372 -25.903  1.00  0.00     0.053 C 
HETATM   20  C8  UNL     1      -5.027  48.574 -23.579  1.00  0.00     0.035 C 
HETATM   21  C9  UNL     1      -4.107  48.135 -22.442  1.00  0.00     0.010 C 
HETATM   22  C17 UNL     1      -0.729  49.180 -20.830  1.00  0.00     0.009 C 
HETATM   23  C18 UNL     1      -0.442  50.017 -19.584  1.00  0.00     0.047 C 
BRANCH   4  24
HETATM   24  O2  UNL     1      -1.798  51.336 -18.120  1.00  0.00    -0.381 OA
HETATM   25  H27 UNL     1      -0.999  51.363 -17.554  1.00  0.00     0.211 HD
ENDBRANCH   4  24
ENDBRANCH   2   4
ENDBRANCH   1   2
BRANCH   1  26
HETATM   26  O4  UNL     1      -0.731  50.230 -15.841  1.00  0.00    -0.314 OA
BRANCH  26  27
HETATM   27  C22 UNL     1       0.527  50.048 -15.363  1.00  0.00     0.259 C 
HETATM   28  O5  UNL     1       1.036  48.955 -15.144  1.00  0.00    -0.265 OA
BRANCH  27  29
HETATM   29  C23 UNL     1       1.229  51.363 -15.179  1.00  0.00     0.120 C 
BRANCH  29  30
HETATM   30  C24 UNL     1       0.494  52.226 -14.166  1.00  0.00     0.112 C 
BRANCH  30  31
HETATM   31  C25 UNL     1       1.268  52.325 -12.869  1.00  0.00     0.218 C 
HETATM   32  O6  UNL     1       2.230  51.614 -12.605  1.00  0.00    -0.274 OA
HETATM   33  N1  UNL     1       0.777  53.291 -12.015  1.00  0.00    -0.346 N 
HETATM   34  H34 UNL     1       0.237  54.030 -12.449  1.00  0.00     0.163 HD
BRANCH  33  35
HETATM   35  C26 UNL     1       1.522  53.695 -10.805  1.00  0.00     0.186 C 
BRANCH  35  36
HETATM   36  C27 UNL     1       1.563  55.216 -10.577  1.00  0.00     0.077 C 
BRANCH  36  37
HETATM   37  C28 UNL     1       2.433  55.621  -9.420  1.00  0.00    -0.028 A 
HETATM   38  C29 UNL     1       2.008  56.212  -8.244  1.00  0.00     0.096 A 
HETATM   39  N2  UNL     1       3.098  56.403  -7.437  1.00  0.00    -0.365 N 
HETATM   40  C30 UNL     1       4.236  55.947  -8.057  1.00  0.00     0.042 A 
HETATM   41  H39 UNL     1       3.080  56.815  -6.516  1.00  0.00     0.165 HD
HETATM   42  C31 UNL     1       5.564  55.934  -7.611  1.00  0.00     0.030 A 
HETATM   43  C35 UNL     1       3.851  55.450  -9.305  1.00  0.00    -0.002 A 
HETATM   44  C32 UNL     1       6.532  55.397  -8.466  1.00  0.00     0.002 A 
HETATM   45  C33 UNL     1       6.181  54.893  -9.716  1.00  0.00     0.001 A 
HETATM   46  C34 UNL     1       4.849  54.914 -10.145  1.00  0.00     0.014 A 
ENDBRANCH  36  37
ENDBRANCH  35  36
BRANCH  35  47
HETATM   47  C36 UNL     1       1.007  52.934  -9.574  1.00  0.00     0.163 C 
HETATM   48  O7  UNL     1       1.646  52.574  -8.599  1.00  0.00    -0.648 OA
BRANCH  47  49
HETATM   49  O8  UNL     1      -0.288  52.549  -9.682  1.00  0.00    -0.775 OA
HETATM   50  H44 UNL     1      -0.445  52.074  -8.836  1.00  0.00     0.167 HD
ENDBRANCH  47  49
ENDBRANCH  35  47
ENDBRANCH  33  35
ENDBRANCH  30  31
ENDBRANCH  29  30
ENDBRANCH  27  29
ENDBRANCH  26  27
ENDBRANCH   1  26
TORSDOF 13
ENDMDL
