MODEL 1
REMARK minimizedAffinity -10.5937681
REMARK CNNscore 0.45034796
REMARK CNNaffinity 7.75790453
REMARK  12 active torsions:
REMARK  status: ('A' for Active; 'I' for Inactive)
REMARK    1  A    between atoms: C3_3  and  O1_4 
REMARK    2  A    between atoms: N1_14  and  O2_16 
REMARK    3  A    between atoms: O2_16  and  C13_17 
REMARK    4  A    between atoms: C13_17  and  C14_18 
REMARK       I    between atoms: C14_18  and  N2_20 
REMARK    5  A    between atoms: N2_20  and  C15_21 
REMARK    6  A    between atoms: C15_21  and  C16_22 
REMARK    7  A    between atoms: C15_21  and  C26_36 
REMARK       I    between atoms: C16_22  and  N3_24 
REMARK    8  A    between atoms: N3_24  and  C17_25 
REMARK    9  A    between atoms: C17_25  and  C18_26 
REMARK   10  A    between atoms: C17_25  and  C25_33 
REMARK   11  A    between atoms: C18_26  and  C19_27 
REMARK   12  A    between atoms: C25_33  and  O6_35 
ROOT
HETATM    1  C1  UNL     1     -10.592   6.938  14.165  1.00  0.00     0.015 C 
HETATM    2  C2  UNL     1      -9.510   6.530  14.489  1.00  0.00    -0.078 C 
HETATM    3  C3  UNL     1      -8.194   5.999  14.909  1.00  0.00     0.128 C 
HETATM    4  C4  UNL     1      -7.742   4.897  13.946  1.00  0.00     0.052 C 
HETATM    5  C5  UNL     1      -7.164   5.667  12.770  1.00  0.00     0.010 C 
HETATM    6  C6  UNL     1      -6.422   6.857  13.399  1.00  0.00     0.002 C 
HETATM    7  C7  UNL     1      -4.870   6.784  13.300  1.00  0.00    -0.004 C 
HETATM    8  C8  UNL     1      -4.209   5.402  13.479  1.00  0.00     0.010 C 
HETATM    9  C9  UNL     1      -2.688   5.465  13.295  1.00  0.00     0.035 C 
HETATM   10  C10 UNL     1      -2.017   6.554  14.105  1.00  0.00    -0.069 C 
HETATM   11  C11 UNL     1      -0.891   6.288  14.791  1.00  0.00     0.030 C 
HETATM   12  C12 UNL     1      -0.119   7.358  15.477  1.00  0.00     0.032 C 
HETATM   13  N1  UNL     1       0.905   7.006  16.201  1.00  0.00    -0.271 N 
ATOM     14  H1  UNL     1       1.190   6.040  16.359  1.00  0.00     0.194 HD
HETATM   15  C29 UNL     1      -0.542   8.794  15.234  1.00  0.00     0.060 C 
HETATM   16  C30 UNL     1      -2.060   8.879  15.138  1.00  0.00     0.020 C 
HETATM   17  C31 UNL     1      -2.666   7.936  14.057  1.00  0.00    -0.016 C 
HETATM   18  C32 UNL     1      -2.367   8.565  12.671  1.00  0.00     0.020 C 
HETATM   19  C33 UNL     1      -4.225   7.808  14.265  1.00  0.00     0.002 C 
HETATM   20  C34 UNL     1      -4.624   7.487  15.729  1.00  0.00     0.007 C 
HETATM   21  C35 UNL     1      -5.946   6.739  15.915  1.00  0.00     0.014 C 
HETATM   22  C36 UNL     1      -7.014   7.038  14.839  1.00  0.00     0.003 C 
HETATM   23  C37 UNL     1      -7.500   8.492  15.062  1.00  0.00     0.020 C 
ENDROOT
BRANCH   3  24
HETATM   24  O1  UNL     1      -8.348   5.445  16.209  1.00  0.00    -0.377 OA
HETATM   25  H2  UNL     1      -8.719   6.148  16.768  1.00  0.00     0.211 HD
ENDBRANCH   3  24
BRANCH  13  26
HETATM   26  O2  UNL     1       1.566   8.119  16.737  1.00  0.00    -0.271 OA
BRANCH  26  27
HETATM   27  C13 UNL     1       1.709   9.112  15.726  1.00  0.00     0.303 C 
BRANCH  27  28
HETATM   28  C14 UNL     1       3.174   9.526  15.605  1.00  0.00     0.244 C 
HETATM   29  O3  UNL     1       3.745  10.158  16.490  1.00  0.00    -0.271 OA
HETATM   30  N2  UNL     1       3.775   9.125  14.426  1.00  0.00    -0.346 N 
HETATM   31  H16 UNL     1       3.241   8.449  13.893  1.00  0.00     0.163 HD
BRANCH  30  32
HETATM   32  C15 UNL     1       5.217   9.182  14.168  1.00  0.00     0.180 C 
BRANCH  32  33
HETATM   33  C16 UNL     1       5.458   8.796  12.684  1.00  0.00     0.241 C 
HETATM   34  O4  UNL     1       6.064   9.500  11.882  1.00  0.00    -0.271 OA
HETATM   35  N3  UNL     1       4.954   7.565  12.324  1.00  0.00    -0.345 N 
HETATM   36  H18 UNL     1       4.436   6.998  12.988  1.00  0.00     0.163 HD
BRANCH  35  37
HETATM   37  C17 UNL     1       5.033   7.070  10.942  1.00  0.00     0.186 C 
BRANCH  37  38
HETATM   38  C18 UNL     1       3.806   6.214  10.601  1.00  0.00     0.074 C 
BRANCH  38  39
HETATM   39  C19 UNL     1       2.736   6.972   9.855  1.00  0.00    -0.056 A 
HETATM   40  C20 UNL     1       2.873   7.206   8.479  1.00  0.00     0.007 A 
HETATM   41  C21 UNL     1       1.885   7.899   7.778  1.00  0.00     0.001 A 
HETATM   42  C22 UNL     1       0.751   8.359   8.443  1.00  0.00     0.000 A 
HETATM   43  C23 UNL     1       0.604   8.129   9.812  1.00  0.00     0.001 A 
HETATM   44  C24 UNL     1       1.593   7.440  10.516  1.00  0.00     0.007 A 
ENDBRANCH  38  39
ENDBRANCH  37  38
BRANCH  37  45
HETATM   45  C25 UNL     1       6.304   6.234  10.858  1.00  0.00     0.163 C 
HETATM   46  O5  UNL     1       7.441   6.651  11.041  1.00  0.00    -0.648 OA
BRANCH  45  47
HETATM   47  O6  UNL     1       6.090   4.942  10.548  1.00  0.00    -0.775 OA
HETATM   48  H27 UNL     1       6.975   4.524  10.549  1.00  0.00     0.167 HD
ENDBRANCH  45  47
ENDBRANCH  37  45
ENDBRANCH  35  37
ENDBRANCH  32  33
BRANCH  32  49
HETATM   49  C26 UNL     1       6.109   8.409  15.174  1.00  0.00     0.009 C 
HETATM   50  C27 UNL     1       7.052   7.411  14.489  1.00  0.00     0.012 C 
HETATM   51  C28 UNL     1       6.961   9.371  16.013  1.00  0.00     0.012 C 
ENDBRANCH  32  49
ENDBRANCH  30  32
ENDBRANCH  27  28
ENDBRANCH  26  27
ENDBRANCH  13  26
TORSDOF 12
ENDMDL
