MODEL 1
REMARK minimizedAffinity -7.39597464
REMARK CNNscore 0.52831322
REMARK CNNaffinity 6.56112909
REMARK  14 active torsions:
REMARK  status: ('A' for Active; 'I' for Inactive)
REMARK    1  A    between atoms: O1_2  and  C2_3 
REMARK    2  A    between atoms: C2_3  and  C5_6 
REMARK    3  A    between atoms: C6_7  and  C7_8 
REMARK    4  A    between atoms: C7_8  and  C8_9 
REMARK    5  A    between atoms: C8_9  and  C10_11 
REMARK    6  A    between atoms: C16_17  and  O2_18 
REMARK    7  A    between atoms: C22_24  and  O3_25 
REMARK    8  A    between atoms: O3_25  and  C23_26 
REMARK    9  A    between atoms: C24_28  and  C25_29 
REMARK   10  A    between atoms: C25_29  and  O5_30 
REMARK   11  A    between atoms: C26_31  and  O6_32 
REMARK   12  A    between atoms: C27_33  and  O7_34 
REMARK   13  A    between atoms: C28_35  and  O8_36 
REMARK   14  A    between atoms: C32_40  and  C33_41 
ROOT
HETATM    1  C10 UNL     1     -17.661   4.091  13.478  1.00  0.00    -0.002 C 
HETATM    2  C11 UNL     1     -18.903   3.354  12.951  1.00  0.00     0.006 C 
HETATM    3  C12 UNL     1     -18.698   1.930  13.441  1.00  0.00     0.011 C 
HETATM    4  C13 UNL     1     -18.225   2.096  14.904  1.00  0.00    -0.029 C 
HETATM    5  C14 UNL     1     -19.508   2.306  15.765  1.00  0.00     0.016 C 
HETATM    6  C15 UNL     1     -17.416   0.869  15.483  1.00  0.00     0.043 C 
HETATM    7  C16 UNL     1     -18.236  -0.416  15.772  1.00  0.00     0.147 C 
HETATM    8  C17 UNL     1     -18.259  -1.440  14.689  1.00  0.00     0.009 C 
HETATM    9  C18 UNL     1     -17.394  -1.504  13.660  1.00  0.00    -0.066 C 
HETATM   10  C19 UNL     1     -16.260  -0.495  13.534  1.00  0.00     0.031 C 
HETATM   11  C20 UNL     1     -14.945  -1.213  13.183  1.00  0.00     0.013 C 
HETATM   12  C21 UNL     1     -15.080  -2.029  11.903  1.00  0.00     0.034 C 
HETATM   13  C22 UNL     1     -16.164  -3.105  12.038  1.00  0.00     0.136 C 
HETATM   14  C29 UNL     1     -17.546  -2.507  12.491  1.00  0.00     0.002 C 
HETATM   15  C30 UNL     1     -18.466  -3.710  12.828  1.00  0.00     0.022 C 
HETATM   16  C31 UNL     1     -18.229  -1.756  11.323  1.00  0.00     0.022 C 
HETATM   17  C32 UNL     1     -16.090   0.535  14.717  1.00  0.00     0.027 C 
HETATM   18  C34 UNL     1     -15.420   1.819  14.148  1.00  0.00     0.018 C 
HETATM   19  C35 UNL     1     -15.799   3.071  14.932  1.00  0.00     0.011 C 
HETATM   20  C36 UNL     1     -17.321   3.423  14.875  1.00  0.00    -0.032 C 
HETATM   21  C37 UNL     1     -17.563   4.319  16.108  1.00  0.00     0.016 C 
ENDROOT
BRANCH  13  22
HETATM   22  O3  UNL     1     -16.382  -3.824  10.817  1.00  0.00    -0.352 OA
BRANCH  22  23
HETATM   23  C23 UNL     1     -15.217  -4.209  10.091  1.00  0.00     0.292 C 
HETATM   24  O4  UNL     1     -15.239  -3.571   8.811  1.00  0.00    -0.348 OA
HETATM   25  C24 UNL     1     -14.410  -4.152   7.800  1.00  0.00     0.179 C 
HETATM   26  C26 UNL     1     -13.433  -5.215   8.332  1.00  0.00     0.180 C 
HETATM   27  C27 UNL     1     -14.154  -6.315   9.108  1.00  0.00     0.183 C 
HETATM   28  C28 UNL     1     -15.284  -5.751   9.971  1.00  0.00     0.204 C 
BRANCH  25  29
HETATM   29  C25 UNL     1     -15.263  -4.574   6.582  1.00  0.00     0.198 C 
BRANCH  29  30
HETATM   30  O5  UNL     1     -14.868  -4.021   5.334  1.00  0.00    -0.398 OA
HETATM   31  H40 UNL     1     -14.661  -3.068   5.441  1.00  0.00     0.209 HD
ENDBRANCH  29  30
ENDBRANCH  25  29
BRANCH  26  32
HETATM   32  O6  UNL     1     -12.651  -5.779   7.280  1.00  0.00    -0.390 OA
HETATM   33  H42 UNL     1     -11.824  -6.093   7.687  1.00  0.00     0.210 HD
ENDBRANCH  26  32
BRANCH  27  34
HETATM   34  O7  UNL     1     -13.180  -6.976   9.934  1.00  0.00    -0.390 OA
HETATM   35  H44 UNL     1     -13.583  -7.814  10.223  1.00  0.00     0.210 HD
ENDBRANCH  27  34
BRANCH  28  36
HETATM   36  O8  UNL     1     -16.533  -6.136   9.368  1.00  0.00    -0.388 OA
HETATM   37  H46 UNL     1     -17.218  -5.596   9.815  1.00  0.00     0.210 HD
ENDBRANCH  28  36
ENDBRANCH  22  23
ENDBRANCH  13  22
BRANCH  17  38
HETATM   38  C33 UNL     1     -15.149  -0.078  15.774  1.00  0.00     0.241 C 
HETATM   39  O9  UNL     1     -14.189   0.497  16.281  1.00  0.00    -0.306 OA
ENDBRANCH  17  38
BRANCH   7  40
HETATM   40  O2  UNL     1     -17.680  -1.074  16.912  1.00  0.00    -0.391 OA
HETATM   41  H28 UNL     1     -18.314  -1.754  17.194  1.00  0.00     0.210 HD
ENDBRANCH   7  40
BRANCH   1  42
HETATM   42  C8  UNL     1     -17.757   5.636  13.274  1.00  0.00    -0.010 C 
HETATM   43  C9  UNL     1     -19.158   6.079  12.831  1.00  0.00     0.010 C 
BRANCH  42  44
HETATM   44  C7  UNL     1     -16.569   6.277  12.510  1.00  0.00     0.031 C 
BRANCH  44  45
HETATM   45  C6  UNL     1     -15.439   6.829  13.334  1.00  0.00    -0.027 C 
HETATM   46  C5  UNL     1     -14.201   7.029  12.843  1.00  0.00     0.006 C 
BRANCH  46  47
HETATM   47  C2  UNL     1     -12.967   7.552  13.554  1.00  0.00     0.070 C 
HETATM   48  C3  UNL     1     -13.342   8.742  14.452  1.00  0.00     0.050 C 
HETATM   49  C4  UNL     1     -12.280   6.497  14.436  1.00  0.00     0.050 C 
BRANCH  47  50
HETATM   50  O1  UNL     1     -11.974   7.912  12.579  1.00  0.00    -0.382 OA
HETATM   51  C1  UNL     1     -11.704   9.295  12.395  1.00  0.00     0.202 C 
ENDBRANCH  47  50
ENDBRANCH  46  47
ENDBRANCH  44  45
ENDBRANCH  42  44
ENDBRANCH   1  42
TORSDOF 14
ENDMDL
