MODEL 1
REMARK minimizedAffinity -6.26746655
REMARK CNNscore 0.495297372
REMARK CNNaffinity 5.83294439
REMARK  13 active torsions:
REMARK  status: ('A' for Active; 'I' for Inactive)
REMARK    1  A    between atoms: C4_4  and  C5_5 
REMARK    2  A    between atoms: C5_5  and  C6_6 
REMARK    3  A    between atoms: C6_6  and  C7_7 
REMARK    4  A    between atoms: C9_9  and  C10_10 
REMARK    5  A    between atoms: C11_11  and  C12_12 
REMARK    6  A    between atoms: C14_14  and  C15_15 
REMARK    7  A    between atoms: C18_18  and  C19_19 
REMARK    8  A    between atoms: C19_19  and  C20_20 
REMARK    9  A    between atoms: C20_20  and  C21_21 
REMARK   10  A    between atoms: C21_21  and  O1_22 
REMARK   11  A    between atoms: C23_24  and  C25_26 
REMARK   12  A    between atoms: C28_30  and  O3_32 
REMARK   13  A    between atoms: C30_33  and  O4_34 
ROOT
HETATM    1  C15 UNL     1       0.204  11.956  19.276  1.00  0.00     0.149 C 
HETATM    2  C16 UNL     1       0.768  11.324  20.540  1.00  0.00     0.054 C 
HETATM    3  C17 UNL     1       2.284  11.647  20.512  1.00  0.00     0.050 C 
HETATM    4  C18 UNL     1       2.643  12.937  21.391  1.00  0.00     0.032 C 
HETATM    5  C22 UNL     1       4.175  13.164  21.557  1.00  0.00    -0.066 C 
HETATM    6  C23 UNL     1       4.713  14.124  22.361  1.00  0.00    -0.021 C 
HETATM    7  C24 UNL     1       3.968  14.954  23.372  1.00  0.00     0.052 C 
HETATM    8  C26 UNL     1       5.039  12.193  20.768  1.00  0.00     0.038 C 
HETATM    9  C27 UNL     1       4.654  10.722  20.961  1.00  0.00     0.042 C 
HETATM   10  C28 UNL     1       3.137  10.455  21.091  1.00  0.00     0.067 C 
HETATM   11  C29 UNL     1       2.808  10.124  22.562  1.00  0.00     0.047 C 
HETATM   12  C30 UNL     1       2.502  11.863  18.983  1.00  0.00     0.270 C 
HETATM   13  O5  UNL     1       1.256  11.996  18.316  1.00  0.00    -0.351 OA
ENDROOT
BRANCH   4  14
HETATM   14  C19 UNL     1       1.835  14.234  21.083  1.00  0.00     0.012 C 
BRANCH  14  15
HETATM   15  C20 UNL     1       2.275  15.101  19.896  1.00  0.00     0.027 C 
BRANCH  15  16
HETATM   16  C21 UNL     1       2.295  16.584  20.268  1.00  0.00     0.164 C 
BRANCH  16  17
HETATM   17  O1  UNL     1       3.633  16.986  20.519  1.00  0.00    -0.401 OA
HETATM   18  H32 UNL     1       3.612  17.911  20.823  1.00  0.00     0.209 HD
ENDBRANCH  16  17
ENDBRANCH  15  16
ENDBRANCH  14  15
ENDBRANCH   4  14
BRANCH  10  19
HETATM   19  O3  UNL     1       2.849   9.234  20.391  1.00  0.00    -0.389 OA
HETATM   20  H44 UNL     1       3.013   9.419  19.440  1.00  0.00     0.210 HD
ENDBRANCH  10  19
BRANCH  12  21
HETATM   21  O4  UNL     1       3.152  10.772  18.348  1.00  0.00    -0.370 OA
HETATM   22  H46 UNL     1       3.118  11.013  17.402  1.00  0.00     0.212 HD
ENDBRANCH  12  21
BRANCH   1  23
HETATM   23  C14 UNL     1      -1.035  11.334  18.696  1.00  0.00     0.011 C 
HETATM   24  C12 UNL     1      -1.180  10.449  17.686  1.00  0.00    -0.063 C 
HETATM   25  C13 UNL     1      -0.025   9.814  16.955  1.00  0.00     0.048 C 
BRANCH  24  26
HETATM   26  C11 UNL     1      -2.536  10.102  17.254  1.00  0.00     0.006 C 
HETATM   27  C10 UNL     1      -3.064  10.271  16.028  1.00  0.00     0.001 C 
BRANCH  27  28
HETATM   28  C9  UNL     1      -4.444   9.953  15.718  1.00  0.00     0.002 C 
HETATM   29  C7  UNL     1      -4.934   8.752  15.343  1.00  0.00    -0.084 C 
HETATM   30  C8  UNL     1      -4.139   7.473  15.252  1.00  0.00     0.043 C 
BRANCH  29  31
HETATM   31  C6  UNL     1      -6.415   8.608  15.016  1.00  0.00     0.037 C 
BRANCH  31  32
HETATM   32  C5  UNL     1      -7.024   7.232  15.341  1.00  0.00     0.031 C 
BRANCH  32  33
HETATM   33  C4  UNL     1      -7.785   6.624  14.192  1.00  0.00    -0.024 C 
HETATM   34  C2  UNL     1      -7.397   5.638  13.359  1.00  0.00    -0.091 C 
HETATM   35  C1  UNL     1      -8.324   5.154  12.271  1.00  0.00     0.042 C 
HETATM   36  C3  UNL     1      -6.070   4.931  13.389  1.00  0.00     0.042 C 
ENDBRANCH  32  33
ENDBRANCH  31  32
ENDBRANCH  29  31
ENDBRANCH  27  28
ENDBRANCH  24  26
ENDBRANCH   1  23
BRANCH   6  37
HETATM   37  C25 UNL     1       6.170  14.491  22.306  1.00  0.00     0.265 C 
HETATM   38  O2  UNL     1       6.961  14.242  23.213  1.00  0.00    -0.302 OA
ENDBRANCH   6  37
TORSDOF 13
ENDMDL
