MODEL 1
REMARK minimizedAffinity -9.36261559
REMARK  5 active torsions:
REMARK  status: ('A' for Active; 'I' for Inactive)
REMARK    1  A    between atoms: C4_4  and  C5_5 
REMARK    2  A    between atoms: C5_5  and  C6_6 
REMARK    3  A    between atoms: C6_6  and  C7_7 
REMARK    4  A    between atoms: C7_7  and  C9_9 
REMARK    5  A    between atoms: C24_24  and  O1_25 
ROOT
HETATM    1  C9  UNL     1       1.272   6.618  12.781  1.00  0.00    -0.002 C 
HETATM    2  C10 UNL     1       0.577   7.928  13.214  1.00  0.00     0.007 C 
HETATM    3  C11 UNL     1      -0.932   7.614  13.357  1.00  0.00     0.015 C 
HETATM    4  C12 UNL     1      -1.044   6.080  13.228  1.00  0.00    -0.013 C 
HETATM    5  C13 UNL     1      -0.809   5.490  14.656  1.00  0.00     0.021 C 
HETATM    6  C14 UNL     1      -2.353   5.450  12.763  1.00  0.00    -0.068 C 
HETATM    7  C15 UNL     1      -2.332   4.249  12.123  1.00  0.00    -0.068 C 
HETATM    8  C16 UNL     1      -1.016   3.553  11.754  1.00  0.00     0.036 C 
HETATM    9  C17 UNL     1       0.300   4.282  12.102  1.00  0.00     0.015 C 
HETATM   10  C18 UNL     1       0.093   5.797  12.179  1.00  0.00    -0.029 C 
HETATM   11  C19 UNL     1      -0.236   6.314  10.744  1.00  0.00     0.016 C 
HETATM   12  C20 UNL     1      -3.638   3.554  11.679  1.00  0.00    -0.017 C 
HETATM   13  C21 UNL     1      -3.864   3.940  10.195  1.00  0.00     0.020 C 
HETATM   14  C22 UNL     1      -3.567   2.004  11.796  1.00  0.00     0.016 C 
HETATM   15  C23 UNL     1      -4.895   1.310  11.482  1.00  0.00     0.033 C 
HETATM   16  C24 UNL     1      -6.046   1.848  12.324  1.00  0.00     0.118 C 
HETATM   17  C25 UNL     1      -6.148   3.372  12.263  1.00  0.00     0.037 C 
HETATM   18  C26 UNL     1      -4.806   4.028  12.605  1.00  0.00     0.001 C 
HETATM   19  C27 UNL     1      -4.919   5.551  12.619  1.00  0.00     0.010 C 
HETATM   20  C28 UNL     1      -3.625   6.187  13.126  1.00  0.00     0.036 C 
ENDROOT
BRANCH   1  21
HETATM   21  C7  UNL     1       2.588   6.719  11.958  1.00  0.00    -0.014 C 
HETATM   22  C8  UNL     1       2.787   8.165  11.476  1.00  0.00     0.010 C 
BRANCH  21  23
HETATM   23  C6  UNL     1       2.846   5.679  10.835  1.00  0.00     0.008 C 
BRANCH  23  24
HETATM   24  C5  UNL     1       3.604   6.109   9.560  1.00  0.00     0.028 C 
BRANCH  24  25
HETATM   25  C4  UNL     1       2.760   6.199   8.321  1.00  0.00    -0.025 C 
HETATM   26  C2  UNL     1       2.455   7.281   7.580  1.00  0.00    -0.091 C 
HETATM   27  C1  UNL     1       2.904   8.690   7.860  1.00  0.00     0.042 C 
HETATM   28  C3  UNL     1       1.588   7.146   6.355  1.00  0.00     0.042 C 
ENDBRANCH  24  25
ENDBRANCH  23  24
ENDBRANCH  21  23
ENDBRANCH   1  21
BRANCH  16  29
HETATM   29  O1  UNL     1      -7.271   1.269  11.883  1.00  0.00    -0.396 OA
HETATM   30  H39 UNL     1      -7.431   1.568  10.970  1.00  0.00     0.210 HD
ENDBRANCH  16  29
TORSDOF 5
ENDMDL
