MODEL 1
REMARK minimizedAffinity -9.03177357
REMARK  8 active torsions:
REMARK  status: ('A' for Active; 'I' for Inactive)
REMARK    1  A    between atoms: C4_4  and  C5_5 
REMARK    2  A    between atoms: C5_5  and  C6_6 
REMARK    3  A    between atoms: C6_6  and  C7_7 
REMARK    4  A    between atoms: C9_9  and  C10_10 
REMARK    5  A    between atoms: C11_11  and  C12_12 
REMARK    6  A    between atoms: C14_14  and  C15_15 
REMARK    7  A    between atoms: C24_25  and  C26_27 
REMARK    8  A    between atoms: C29_31  and  O3_33 
ROOT
HETATM    1  C15 UNL     1       0.460   5.541  11.449  1.00  0.00     0.149 C 
HETATM    2  C16 UNL     1       0.310   5.938   9.975  1.00  0.00     0.054 C 
HETATM    3  C17 UNL     1       1.290   7.124   9.815  1.00  0.00     0.050 C 
HETATM    4  C18 UNL     1       1.053   7.768  11.194  1.00  0.00     0.272 C 
HETATM    5  O1  UNL     1       1.929   8.819  11.541  1.00  0.00    -0.360 OA
HETATM    6  C19 UNL     1       3.077   8.481  12.288  1.00  0.00     0.171 C 
HETATM    7  C20 UNL     1       4.067   7.562  11.588  1.00  0.00     0.027 C 
HETATM    8  C21 UNL     1       3.918   7.455  10.072  1.00  0.00     0.012 C 
HETATM    9  C22 UNL     1       2.750   6.531   9.672  1.00  0.00     0.032 C 
HETATM   10  C23 UNL     1       2.988   5.929   8.272  1.00  0.00    -0.066 C 
HETATM   11  C24 UNL     1       3.428   4.666   8.029  1.00  0.00    -0.021 C 
HETATM   12  C25 UNL     1       3.547   4.010   6.676  1.00  0.00     0.052 C 
HETATM   13  C27 UNL     1       2.661   6.910   7.167  1.00  0.00     0.038 C 
HETATM   14  C28 UNL     1       1.213   7.379   7.269  1.00  0.00     0.042 C 
HETATM   15  C29 UNL     1       0.933   8.074   8.615  1.00  0.00     0.067 C 
HETATM   16  C30 UNL     1      -0.513   8.599   8.596  1.00  0.00     0.047 C 
HETATM   17  O4  UNL     1       0.975   6.695  12.143  1.00  0.00    -0.351 OA
ENDROOT
BRANCH   1  18
HETATM   18  C14 UNL     1      -0.841   5.144  12.084  1.00  0.00     0.011 C 
HETATM   19  C12 UNL     1      -1.265   5.426  13.334  1.00  0.00    -0.063 C 
HETATM   20  C13 UNL     1      -0.432   6.177  14.343  1.00  0.00     0.048 C 
BRANCH  19  21
HETATM   21  C11 UNL     1      -2.589   4.959  13.746  1.00  0.00     0.006 C 
HETATM   22  C10 UNL     1      -3.654   4.771  12.948  1.00  0.00     0.001 C 
BRANCH  22  23
HETATM   23  C9  UNL     1      -4.938   4.326  13.455  1.00  0.00     0.002 C 
HETATM   24  C7  UNL     1      -5.912   3.693  12.766  1.00  0.00    -0.084 C 
HETATM   25  C8  UNL     1      -5.808   3.280  11.317  1.00  0.00     0.043 C 
BRANCH  24  26
HETATM   26  C6  UNL     1      -7.257   3.306  13.377  1.00  0.00     0.037 C 
BRANCH  26  27
HETATM   27  C5  UNL     1      -8.422   4.299  13.243  1.00  0.00     0.031 C 
BRANCH  27  28
HETATM   28  C4  UNL     1      -7.963   5.718  13.447  1.00  0.00    -0.024 C 
HETATM   29  C2  UNL     1      -7.682   6.336  14.612  1.00  0.00    -0.091 C 
HETATM   30  C1  UNL     1      -7.186   7.758  14.626  1.00  0.00     0.042 C 
HETATM   31  C3  UNL     1      -7.829   5.719  15.976  1.00  0.00     0.042 C 
ENDBRANCH  27  28
ENDBRANCH  26  27
ENDBRANCH  24  26
ENDBRANCH  22  23
ENDBRANCH  19  21
ENDBRANCH   1  18
BRANCH  15  32
HETATM   32  O3  UNL     1       1.770   9.236   8.667  1.00  0.00    -0.389 OA
HETATM   33  H44 UNL     1       1.512   9.849   7.959  1.00  0.00     0.210 HD
ENDBRANCH  15  32
BRANCH  11  34
HETATM   34  C26 UNL     1       3.884   3.755   9.132  1.00  0.00     0.265 C 
HETATM   35  O2  UNL     1       4.967   3.180   9.114  1.00  0.00    -0.302 OA
ENDBRANCH  11  34
TORSDOF 8
ENDMDL
