MODEL 1
REMARK minimizedAffinity -7.72462988
REMARK CNNscore 0.663911998
REMARK CNNaffinity 7.03507233
REMARK  6 active torsions:
REMARK  status: ('A' for Active; 'I' for Inactive)
REMARK    1  A    between atoms: C2_2  and  C30_31 
REMARK    2  A    between atoms: C3_3  and  C4_4 
REMARK    3  A    between atoms: C4_4  and  C5_5 
REMARK    4  A    between atoms: C5_5  and  C6_6 
REMARK    5  A    between atoms: C6_6  and  C8_8 
REMARK    6  A    between atoms: C30_31  and  O3_33 
ROOT
HETATM    1  C8  UNL     1      -1.874  53.339 -11.016  1.00  0.00    -0.002 C 
HETATM    2  C9  UNL     1      -2.213  54.666 -10.286  1.00  0.00     0.007 C 
HETATM    3  C10 UNL     1      -0.957  55.085  -9.520  1.00  0.00     0.015 C 
HETATM    4  C11 UNL     1      -0.261  53.756  -9.148  1.00  0.00    -0.013 C 
HETATM    5  C12 UNL     1      -1.058  53.149  -7.960  1.00  0.00     0.021 C 
HETATM    6  C13 UNL     1       1.240  53.921  -8.795  1.00  0.00    -0.070 C 
HETATM    7  C14 UNL     1       1.795  53.485  -7.648  1.00  0.00    -0.022 C 
HETATM    8  C15 UNL     1       3.256  53.497  -7.331  1.00  0.00     0.034 C 
HETATM    9  C16 UNL     1       4.202  53.774  -8.530  1.00  0.00     0.013 C 
HETATM   10  C17 UNL     1       5.680  54.061  -8.067  1.00  0.00     0.018 C 
HETATM   11  C18 UNL     1       6.689  53.483  -9.086  1.00  0.00     0.023 C 
HETATM   12  C19 UNL     1       6.043  53.420  -6.707  1.00  0.00     0.023 C 
HETATM   13  C20 UNL     1       5.922  55.571  -7.928  1.00  0.00     0.135 C 
HETATM   14  O1  UNL     1       7.063  56.042  -7.905  1.00  0.00    -0.297 OA
HETATM   15  C21 UNL     1       4.730  56.471  -7.688  1.00  0.00     0.080 C 
HETATM   16  C22 UNL     1       3.531  56.215  -8.601  1.00  0.00     0.017 C 
HETATM   17  C23 UNL     1       3.592  54.896  -9.429  1.00  0.00    -0.031 C 
HETATM   18  C24 UNL     1       4.438  55.194 -10.692  1.00  0.00     0.016 C 
HETATM   19  C25 UNL     1       2.127  54.504  -9.890  1.00  0.00     0.024 C 
HETATM   20  C26 UNL     1       2.044  53.511 -11.064  1.00  0.00     0.010 C 
HETATM   21  C27 UNL     1       0.599  53.390 -11.559  1.00  0.00     0.011 C 
HETATM   22  C28 UNL     1      -0.444  52.917 -10.476  1.00  0.00    -0.029 C 
HETATM   23  C29 UNL     1      -0.193  51.417 -10.273  1.00  0.00     0.016 C 
ENDROOT
BRANCH   1  24
HETATM   24  C6  UNL     1      -3.101  52.385 -11.198  1.00  0.00    -0.014 C 
HETATM   25  C7  UNL     1      -3.057  51.568 -12.494  1.00  0.00     0.010 C 
BRANCH  24  26
HETATM   26  C5  UNL     1      -3.659  51.568 -10.002  1.00  0.00     0.008 C 
BRANCH  26  27
HETATM   27  C4  UNL     1      -4.218  50.170 -10.273  1.00  0.00     0.028 C 
BRANCH  27  28
HETATM   28  C3  UNL     1      -5.725  50.184 -10.269  1.00  0.00    -0.013 C 
HETATM   29  C2  UNL     1      -6.557  49.251 -10.772  1.00  0.00     0.008 C 
HETATM   30  C1  UNL     1      -6.147  48.009 -11.503  1.00  0.00     0.055 C 
BRANCH  29  31
HETATM   31  C30 UNL     1      -8.012  49.497 -10.588  1.00  0.00     0.171 C 
HETATM   32  O2  UNL     1      -8.918  49.081 -11.288  1.00  0.00    -0.646 OA
BRANCH  31  33
HETATM   33  O3  UNL     1      -8.266  50.278  -9.523  1.00  0.00    -0.773 OA
HETATM   34  H46 UNL     1      -9.242  50.358  -9.531  1.00  0.00     0.167 HD
ENDBRANCH  31  33
ENDBRANCH  29  31
ENDBRANCH  27  28
ENDBRANCH  26  27
ENDBRANCH  24  26
ENDBRANCH   1  24
TORSDOF 6
ENDMDL
