MODEL 1
REMARK minimizedAffinity -7.24288654
REMARK CNNscore 0.626549423
REMARK CNNaffinity 6.00973892
REMARK  13 active torsions:
REMARK  status: ('A' for Active; 'I' for Inactive)
REMARK    1  A    between atoms: C4_4  and  C5_5 
REMARK    2  A    between atoms: C5_5  and  C6_6 
REMARK    3  A    between atoms: C6_6  and  C7_7 
REMARK    4  A    between atoms: C7_7  and  C9_9 
REMARK    5  A    between atoms: C18_18  and  C20_20 
REMARK    6  A    between atoms: C20_20  and  O2_22 
REMARK    7  A    between atoms: C21_23  and  O3_24 
REMARK    8  A    between atoms: O3_24  and  C22_25 
REMARK    9  A    between atoms: C23_27  and  C24_28 
REMARK   10  A    between atoms: C24_28  and  O5_29 
REMARK   11  A    between atoms: C25_30  and  O6_31 
REMARK   12  A    between atoms: C26_32  and  O7_33 
REMARK   13  A    between atoms: C28_35  and  O8_36 
ROOT
HETATM    1  C9  UNL     1     -17.360   5.462  14.727  1.00  0.00    -0.002 C 
HETATM    2  C10 UNL     1     -18.845   5.440  15.188  1.00  0.00     0.006 C 
HETATM    3  C11 UNL     1     -19.200   3.985  15.536  1.00  0.00     0.011 C 
HETATM    4  C12 UNL     1     -17.857   3.228  15.537  1.00  0.00    -0.032 C 
HETATM    5  C13 UNL     1     -17.241   3.432  16.958  1.00  0.00     0.016 C 
HETATM    6  C14 UNL     1     -17.973   1.713  15.201  1.00  0.00     0.004 C 
HETATM    7  C15 UNL     1     -18.571   0.878  16.333  1.00  0.00     0.007 C 
HETATM    8  C16 UNL     1     -18.770  -0.573  15.910  1.00  0.00     0.007 C 
HETATM    9  C17 UNL     1     -17.486  -1.336  15.509  1.00  0.00     0.018 C 
HETATM   10  C18 UNL     1     -16.921  -2.361  16.567  1.00  0.00     0.072 C 
HETATM   11  C19 UNL     1     -18.039  -3.316  17.066  1.00  0.00     0.030 C 
HETATM   12  C21 UNL     1     -15.782  -3.215  15.898  1.00  0.00     0.146 C 
HETATM   13  C27 UNL     1     -15.004  -2.493  14.791  1.00  0.00     0.066 C 
HETATM   14  C28 UNL     1     -14.987  -0.987  14.963  1.00  0.00     0.130 C 
HETATM   15  C29 UNL     1     -16.401  -0.426  14.878  1.00  0.00    -0.001 A 
HETATM   16  C30 UNL     1     -16.755   0.168  13.530  1.00  0.00     0.024 A 
HETATM   17  C31 UNL     1     -16.639   1.109  14.711  1.00  0.00    -0.025 A 
HETATM   18  C32 UNL     1     -15.411   2.024  14.758  1.00  0.00     0.011 C 
HETATM   19  C33 UNL     1     -15.622   3.511  14.407  1.00  0.00     0.011 C 
HETATM   20  C34 UNL     1     -17.089   3.962  14.379  1.00  0.00    -0.032 C 
HETATM   21  C35 UNL     1     -17.656   3.659  12.957  1.00  0.00     0.016 C 
ENDROOT
BRANCH  12  22
HETATM   22  O3  UNL     1     -16.346  -4.399  15.284  1.00  0.00    -0.352 OA
BRANCH  22  23
HETATM   23  C22 UNL     1     -15.635  -5.589  15.634  1.00  0.00     0.292 C 
HETATM   24  O4  UNL     1     -14.341  -5.301  16.183  1.00  0.00    -0.348 OA
HETATM   25  C23 UNL     1     -13.393  -6.204  15.556  1.00  0.00     0.179 C 
HETATM   26  C25 UNL     1     -14.192  -7.230  14.748  1.00  0.00     0.182 C 
HETATM   27  C26 UNL     1     -15.407  -6.415  14.359  1.00  0.00     0.204 C 
BRANCH  25  28
HETATM   28  C24 UNL     1     -12.508  -6.800  16.645  1.00  0.00     0.198 C 
BRANCH  28  29
HETATM   29  O5  UNL     1     -11.310  -7.314  16.056  1.00  0.00    -0.398 OA
HETATM   30  H39 UNL     1     -10.992  -6.605  15.468  1.00  0.00     0.209 HD
ENDBRANCH  28  29
ENDBRANCH  25  28
BRANCH  26  31
HETATM   31  O6  UNL     1     -14.594  -8.346  15.545  1.00  0.00    -0.390 OA
HETATM   32  H41 UNL     1     -14.861  -9.055  14.932  1.00  0.00     0.210 HD
ENDBRANCH  26  31
BRANCH  27  33
HETATM   33  O7  UNL     1     -15.085  -5.575  13.240  1.00  0.00    -0.388 OA
HETATM   34  H43 UNL     1     -15.560  -4.734  13.407  1.00  0.00     0.210 HD
ENDBRANCH  27  33
ENDBRANCH  22  23
ENDBRANCH  12  22
BRANCH  10  35
HETATM   35  C20 UNL     1     -16.429  -1.681  17.851  1.00  0.00     0.151 C 
HETATM   36  O1  UNL     1     -16.323  -0.485  18.060  1.00  0.00    -0.649 OA
BRANCH  35  37
HETATM   37  O2  UNL     1     -16.242  -2.519  18.893  1.00  0.00    -0.776 OA
HETATM   38  H33 UNL     1     -15.935  -1.909  19.598  1.00  0.00     0.167 HD
ENDBRANCH  35  37
ENDBRANCH  10  35
BRANCH  14  39
HETATM   39  O8  UNL     1     -14.410  -0.637  16.212  1.00  0.00    -0.395 OA
HETATM   40  H47 UNL     1     -13.448  -0.738  16.114  1.00  0.00     0.210 HD
ENDBRANCH  14  39
BRANCH   1  41
HETATM   41  C7  UNL     1     -17.081   6.563  13.667  1.00  0.00    -0.014 C 
HETATM   42  C8  UNL     1     -18.297   6.841  12.780  1.00  0.00     0.010 C 
BRANCH  41  43
HETATM   43  C6  UNL     1     -15.816   6.279  12.811  1.00  0.00     0.008 C 
BRANCH  43  44
HETATM   44  C5  UNL     1     -14.691   7.325  12.804  1.00  0.00     0.028 C 
BRANCH  44  45
HETATM   45  C4  UNL     1     -13.411   6.881  13.457  1.00  0.00    -0.025 C 
HETATM   46  C2  UNL     1     -12.197   7.451  13.332  1.00  0.00    -0.091 C 
HETATM   47  C1  UNL     1     -11.010   6.916  14.089  1.00  0.00     0.042 C 
HETATM   48  C3  UNL     1     -11.890   8.632  12.453  1.00  0.00     0.042 C 
ENDBRANCH  44  45
ENDBRANCH  43  44
ENDBRANCH  41  43
ENDBRANCH   1  41
TORSDOF 13
ENDMDL
