MODEL 1
REMARK minimizedAffinity -8.16214752
REMARK CNNscore 0.554332495
REMARK CNNaffinity 6.36609459
REMARK  4 active torsions:
REMARK  status: ('A' for Active; 'I' for Inactive)
REMARK    1  A    between atoms: C2_2  and  C3_3 
REMARK    2  A    between atoms: C6_6  and  O1_7 
REMARK    3  A    between atoms: C7_8  and  C8_9 
REMARK    4  A    between atoms: C26_32  and  O6_33 
ROOT
HETATM    1  C3  UNL     1       1.044  49.143 -10.457  1.00  0.00     0.008 C 
HETATM    2  C4  UNL     1       1.621  49.890  -9.266  1.00  0.00    -0.023 C 
HETATM    3  C5  UNL     1       2.906  50.208  -9.029  1.00  0.00     0.004 C 
HETATM    4  C6  UNL     1       3.446  50.885  -7.787  1.00  0.00     0.174 C 
HETATM    5  C7  UNL     1       4.505  51.989  -8.096  1.00  0.00     0.187 C 
HETATM    6  O2  UNL     1       3.845  53.187  -8.553  1.00  0.00    -0.308 OA
HETATM    7  C12 UNL     1       4.516  53.923  -9.491  1.00  0.00     0.276 C 
HETATM    8  O3  UNL     1       5.584  53.596  -9.998  1.00  0.00    -0.264 OA
HETATM    9  C13 UNL     1       3.836  55.307  -9.704  1.00  0.00     0.095 A 
HETATM   10  C14 UNL     1       4.192  55.875 -11.101  1.00  0.00     0.036 C 
HETATM   11  C15 UNL     1       4.600  56.179  -8.726  1.00  0.00     0.003 A 
HETATM   12  C16 UNL     1       4.223  56.989  -7.736  1.00  0.00     0.072 A 
HETATM   13  C17 UNL     1       2.886  57.327  -7.253  1.00  0.00     0.245 A 
HETATM   14  O4  UNL     1       2.786  58.152  -6.344  1.00  0.00    -0.268 OA
HETATM   15  N1  UNL     1       1.777  56.760  -7.759  1.00  0.00    -0.320 N 
HETATM   16  C18 UNL     1       1.481  55.829  -8.723  1.00  0.00     0.098 A 
HETATM   17  C19 UNL     1       2.312  55.193  -9.563  1.00  0.00     0.045 A 
HETATM   18  C20 UNL     1       1.722  54.170 -10.509  1.00  0.00     0.194 A 
HETATM   19  O5  UNL     1       2.470  53.481 -11.190  1.00  0.00    -0.287 OA
HETATM   20  C21 UNL     1       0.265  53.973 -10.616  1.00  0.00     0.046 A 
HETATM   21  C22 UNL     1      -0.565  54.663  -9.746  1.00  0.00     0.032 A 
HETATM   22  C23 UNL     1      -1.963  54.508  -9.800  1.00  0.00     0.026 A 
HETATM   23  C24 UNL     1      -2.561  53.655 -10.732  1.00  0.00    -0.027 A 
HETATM   24  C25 UNL     1      -4.056  53.515 -10.753  1.00  0.00     0.051 C 
HETATM   25  C26 UNL     1      -1.729  52.972 -11.623  1.00  0.00     0.086 A 
HETATM   26  C27 UNL     1      -0.328  53.115 -11.558  1.00  0.00     0.059 A 
HETATM   27  C28 UNL     1       0.461  52.382 -12.570  1.00  0.00     0.163 C 
HETATM   28  O7  UNL     1       0.622  52.924 -13.663  1.00  0.00    -0.292 OA
HETATM   29  C29 UNL     1       1.075  51.037 -12.213  1.00  0.00     0.084 C 
HETATM   30  C30 UNL     1       0.224  50.125 -11.324  1.00  0.00     0.016 C 
HETATM   31  C31 UNL     1       0.000  55.576  -8.754  1.00  0.00     0.210 A 
HETATM   32  O8  UNL     1      -0.735  56.152  -7.953  1.00  0.00    -0.285 OA
HETATM   33  H24 UNL     1       0.950  57.106  -7.264  1.00  0.00     0.169 HD
ENDROOT
BRANCH   5  34
HETATM   34  C8  UNL     1       5.257  52.383  -6.840  1.00  0.00     0.010 C 
HETATM   35  C9  UNL     1       6.498  52.014  -6.464  1.00  0.00    -0.089 C 
HETATM   36  C10 UNL     1       7.391  51.075  -7.227  1.00  0.00     0.042 C 
HETATM   37  C11 UNL     1       7.110  52.555  -5.198  1.00  0.00     0.042 C 
ENDBRANCH   5  34
BRANCH   4  38
HETATM   38  O1  UNL     1       2.357  51.397  -7.010  1.00  0.00    -0.389 OA
HETATM   39  H10 UNL     1       2.723  51.634  -6.141  1.00  0.00     0.210 HD
ENDBRANCH   4  38
BRANCH   1  40
HETATM   40  C2  UNL     1       2.025  48.308 -11.307  1.00  0.00     0.004 C 
HETATM   41  C1  UNL     1       3.054  49.160 -12.042  1.00  0.00     0.006 C 
ENDBRANCH   1  40
BRANCH  25  42
HETATM   42  O6  UNL     1      -2.255  52.119 -12.554  1.00  0.00    -0.359 OA
HETATM   43  H29 UNL     1      -3.168  52.375 -12.760  1.00  0.00     0.217 HD
ENDBRANCH  25  42
TORSDOF 4
ENDMDL
