MODEL 1
REMARK minimizedAffinity -9.06393814
REMARK CNNscore 0.789697349
REMARK CNNaffinity 7.43624878
REMARK  7 active torsions:
REMARK  status: ('A' for Active; 'I' for Inactive)
REMARK    1  A    between atoms: C3_3  and  C4_4 
REMARK    2  A    between atoms: C5_6  and  C6_7 
REMARK    3  A    between atoms: C6_7  and  C7_9 
REMARK    4  A    between atoms: C7_9  and  O3_10 
REMARK    5  A    between atoms: O3_10  and  C8_11 
REMARK    6  A    between atoms: C8_11  and  C9_13 
REMARK    7  A    between atoms: C28_36  and  O7_37 
ROOT
HETATM    1  C4  UNL     1      -1.705   8.890  12.189  1.00  0.00     0.286 C 
HETATM    2  O1  UNL     1      -1.356  10.023  12.970  1.00  0.00    -0.338 OA
HETATM    3  C5  UNL     1      -1.289   9.826  14.380  1.00  0.00     0.137 C 
HETATM    4  C14 UNL     1      -0.149   8.820  14.702  1.00  0.00     0.050 C 
HETATM    5  C15 UNL     1      -0.829   7.436  14.695  1.00  0.00     0.043 C 
HETATM    6  C16 UNL     1      -2.277   7.741  14.283  1.00  0.00     0.079 C 
HETATM    7  O5  UNL     1      -2.334   7.808  12.850  1.00  0.00    -0.346 OA
HETATM    8  C17 UNL     1      -3.358   6.712  14.681  1.00  0.00     0.029 C 
HETATM    9  C18 UNL     1      -3.051   5.271  14.210  1.00  0.00     0.012 C 
HETATM   10  C19 UNL     1      -3.998   4.744  13.137  1.00  0.00     0.036 C 
HETATM   11  C20 UNL     1      -5.464   4.920  13.472  1.00  0.00    -0.068 C 
HETATM   12  C21 UNL     1      -6.371   4.095  12.920  1.00  0.00     0.053 C 
HETATM   13  C22 UNL     1      -7.827   4.299  13.106  1.00  0.00     0.149 C 
HETATM   14  O6  UNL     1      -8.609   3.447  12.690  1.00  0.00    -0.293 OA
HETATM   15  C23 UNL     1      -8.306   5.541  13.819  1.00  0.00     0.084 C 
HETATM   16  C24 UNL     1      -7.237   6.631  13.867  1.00  0.00     0.022 C 
HETATM   17  C25 UNL     1      -5.857   6.113  14.354  1.00  0.00    -0.014 C 
HETATM   18  C26 UNL     1      -5.989   5.629  15.818  1.00  0.00     0.020 C 
HETATM   19  C27 UNL     1      -4.754   7.213  14.162  1.00  0.00     0.034 C 
HETATM   20  C28 UNL     1      -5.083   8.641  14.672  1.00  0.00     0.124 C 
HETATM   21  C29 UNL     1      -3.929   9.644  14.429  1.00  0.00     0.048 C 
HETATM   22  C30 UNL     1      -2.558   9.122  14.920  1.00  0.00     0.029 C 
HETATM   23  C31 UNL     1      -2.546   9.119  16.480  1.00  0.00     0.022 C 
ENDROOT
BRANCH   3  24
HETATM   24  C6  UNL     1      -1.024  11.200  15.025  1.00  0.00     0.186 C 
HETATM   25  O2  UNL     1      -0.210  11.349  15.943  1.00  0.00    -0.292 OA
BRANCH  24  26
HETATM   26  C7  UNL     1      -1.832  12.384  14.488  1.00  0.00     0.260 C 
BRANCH  26  27
HETATM   27  O3  UNL     1      -1.091  13.606  14.508  1.00  0.00    -0.310 OA
BRANCH  27  28
HETATM   28  C8  UNL     1      -1.427  14.475  13.523  1.00  0.00     0.295 C 
HETATM   29  O4  UNL     1      -2.538  14.593  13.030  1.00  0.00    -0.259 OA
BRANCH  28  30
HETATM   30  C9  UNL     1      -0.258  15.271  13.095  1.00  0.00     0.054 A 
HETATM   31  C10 UNL     1      -0.374  16.128  11.997  1.00  0.00     0.020 A 
HETATM   32  C11 UNL     1       0.727  16.878  11.590  1.00  0.00     0.018 A 
HETATM   33  C12 UNL     1       1.912  16.744  12.296  1.00  0.00     0.087 A 
HETATM   34  N1  UNL     1       2.060  15.926  13.362  1.00  0.00    -0.374 N 
HETATM   35  C13 UNL     1       0.970  15.212  13.741  1.00  0.00     0.105 A 
ATOM     36  H1  UNL     1       2.949  15.850  13.857  1.00  0.00     0.164 HD
ENDBRANCH  28  30
ENDBRANCH  27  28
ENDBRANCH  26  27
ENDBRANCH  24  26
ENDBRANCH   3  24
BRANCH   1  37
HETATM   37  C3  UNL     1      -0.522   8.394  11.409  1.00  0.00     0.029 C 
HETATM   38  C2  UNL     1      -0.341   8.579  10.091  1.00  0.00    -0.030 C 
HETATM   39  C1  UNL     1       0.835   8.061   9.329  1.00  0.00     0.036 C 
ENDBRANCH   1  37
BRANCH  20  40
HETATM   40  O7  UNL     1      -5.430   8.614  16.047  1.00  0.00    -0.395 OA
HETATM   41  H32 UNL     1      -5.622   9.529  16.325  1.00  0.00     0.210 HD
ENDBRANCH  20  40
TORSDOF 7
ENDMDL
