MODEL 1
REMARK minimizedAffinity -7.67063427
REMARK CNNscore 0.454444259
REMARK CNNaffinity 7.45112419
REMARK  9 active torsions:
REMARK  status: ('A' for Active; 'I' for Inactive)
REMARK       I    between atoms: N1_1  and  C1_2 
REMARK       I    between atoms: C1_2  and  N2_3 
REMARK    1  A    between atoms: N3_4  and  C2_6 
REMARK    2  A    between atoms: C2_6  and  C3_7 
REMARK    3  A    between atoms: C3_7  and  C4_8 
REMARK    4  A    between atoms: C4_8  and  C5_9 
REMARK    5  A    between atoms: C5_9  and  O1_10 
REMARK    6  A    between atoms: C14_20  and  S1_21 
REMARK    7  A    between atoms: C23_33  and  C24_34 
REMARK    8  A    between atoms: C24_34  and  O6_35 
REMARK    9  A    between atoms: C30_41  and  O7_42 
ROOT
HETATM    1  C2  UNL     1       2.516  11.101  20.275  1.00  0.00     0.170 C 
HETATM    2  O2  UNL     1       3.114  11.116  18.920  1.00  0.00    -0.316 OA
HETATM    3  C6  UNL     1       4.331  11.723  18.778  1.00  0.00     0.072 C 
HETATM    4  C7  UNL     1       5.494  11.175  19.305  1.00  0.00     0.037 C 
HETATM    5  C8  UNL     1       6.647  11.956  19.369  1.00  0.00     0.010 C 
HETATM    6  C9  UNL     1       6.641  13.277  18.898  1.00  0.00    -0.058 C 
HETATM    7  C10 UNL     1       5.508  13.755  18.228  1.00  0.00     0.010 C 
HETATM    8  C11 UNL     1       4.361  12.966  18.145  1.00  0.00     0.037 C 
HETATM    9  C12 UNL     1       7.797  14.199  19.202  1.00  0.00     0.040 C 
HETATM   10  C13 UNL     1       7.573  15.053  20.467  1.00  0.00     0.029 C 
HETATM   11  C14 UNL     1       7.477  14.310  21.824  1.00  0.00     0.152 C 
HETATM   12  C15 UNL     1       6.968  15.217  23.008  1.00  0.00     0.107 C 
HETATM   13  C16 UNL     1       7.567  16.613  23.005  1.00  0.00     0.001 C 
HETATM   14  C17 UNL     1       6.811  17.715  22.843  1.00  0.00    -0.036 C 
HETATM   15  C18 UNL     1       5.393  17.576  22.406  1.00  0.00     0.133 C 
HETATM   16  C19 UNL     1       4.753  16.670  23.431  1.00  0.00     0.015 C 
HETATM   17  C20 UNL     1       4.747  17.356  24.830  1.00  0.00     0.039 C 
HETATM   18  C21 UNL     1       6.028  18.032  25.430  1.00  0.00     0.123 C 
HETATM   19  C22 UNL     1       5.612  18.456  26.874  1.00  0.00     0.039 C 
HETATM   20  C23 UNL     1       6.594  19.305  27.716  1.00  0.00     0.023 C 
HETATM   21  C25 UNL     1       7.944  18.602  27.950  1.00  0.00     0.101 C 
HETATM   22  C26 UNL     1       8.781  18.800  26.771  1.00  0.00    -0.101 C 
HETATM   23  C27 UNL     1       9.233  19.055  25.691  1.00  0.00    -0.066 C 
HETATM   24  C28 UNL     1       9.579  19.421  24.361  1.00  0.00     0.029 A 
HETATM   25  C29 UNL     1      10.917  19.757  24.112  1.00  0.00     0.057 A 
HETATM   26  C30 UNL     1      11.325  20.099  22.830  1.00  0.00     0.067 A 
HETATM   27  C31 UNL     1      10.415  20.130  21.785  1.00  0.00     0.037 A 
HETATM   28  C32 UNL     1       9.080  19.808  22.034  1.00  0.00     0.014 A 
HETATM   29  C33 UNL     1       8.626  19.448  23.328  1.00  0.00    -0.006 A 
HETATM   30  C34 UNL     1       7.148  19.050  23.447  1.00  0.00     0.186 C 
HETATM   31  O8  UNL     1       6.465  19.216  24.720  1.00  0.00    -0.371 OA
HETATM   32  C35 UNL     1       5.412  15.236  23.381  1.00  0.00     0.046 C 
HETATM   33  C36 UNL     1       4.555  14.199  22.651  1.00  0.00    -0.052 A 
HETATM   34  C37 UNL     1       3.673  14.522  21.614  1.00  0.00     0.008 A 
HETATM   35  C38 UNL     1       2.956  13.526  20.942  1.00  0.00     0.012 A 
HETATM   36  C39 UNL     1       3.151  12.162  21.226  1.00  0.00    -0.003 A 
HETATM   37  C40 UNL     1       3.990  11.844  22.306  1.00  0.00     0.012 A 
HETATM   38  C41 UNL     1       4.667  12.847  23.012  1.00  0.00     0.008 A 
HETATM   39 NA1  UNL     1       5.569  14.987  22.534  1.00  0.00    -0.237 Na
ENDROOT
BRANCH   1  40
HETATM   40  N3  UNL     1       1.053  11.331  20.170  1.00  0.00    -0.336 N 
HETATM   41  C1  UNL     1       0.319  10.990  19.187  1.00  0.00     0.124 C 
HETATM   42  N1  UNL     1      -1.000  11.291  19.227  1.00  0.00    -0.279 NA
HETATM   43  N2  UNL     1       0.582  10.339  18.037  1.00  0.00    -0.279 NA
HETATM   44  H1  UNL     1      -1.246  11.618  20.158  1.00  0.00     0.126 HD
HETATM   45  H2  UNL     1      -1.570  10.495  18.970  1.00  0.00     0.126 HD
HETATM   46  H3  UNL     1       1.558  10.148  17.843  1.00  0.00     0.126 HD
HETATM   47  H4  UNL     1       0.111  10.739  17.231  1.00  0.00     0.126 HD
ATOM     48  H3  UNL     1       0.597  11.801  20.953  1.00  0.00     0.165 HD
ENDBRANCH   1  40
BRANCH   1  49
HETATM   49  C3  UNL     1       2.694   9.621  20.760  1.00  0.00     0.069 C 
BRANCH  49  50
HETATM   50  C4  UNL     1       3.256   9.422  22.179  1.00  0.00     0.031 C 
BRANCH  50  51
HETATM   51  C5  UNL     1       2.485   8.456  23.064  1.00  0.00     0.164 C 
BRANCH  51  52
HETATM   52  O1  UNL     1       1.564   7.714  22.263  1.00  0.00    -0.401 OA
HETATM   53  H11 UNL     1       0.960   8.365  21.866  1.00  0.00     0.209 HD
ENDBRANCH  51  52
ENDBRANCH  50  51
ENDBRANCH  49  50
ENDBRANCH   1  49
BRANCH  11  54
HETATM   54  S1  UNL     1       9.064  13.538  22.301  1.00  0.00     0.108 S 
HETATM   55  O3  UNL     1       8.987  12.171  21.792  1.00  0.00    -0.595 OA
HETATM   56  O4  UNL     1       9.059  13.605  23.763  1.00  0.00    -0.595 OA
HETATM   57  O5  UNL     1      10.077  14.365  21.650  1.00  0.00    -0.595 OA
ENDBRANCH  11  54
BRANCH  20  58
HETATM   58  C24 UNL     1       5.951  19.664  29.064  1.00  0.00     0.169 C 
BRANCH  58  59
HETATM   59  O6  UNL     1       4.722  18.971  29.248  1.00  0.00    -0.400 OA
HETATM   60  H34 UNL     1       4.340  19.288  30.083  1.00  0.00     0.209 HD
ENDBRANCH  58  59
ENDBRANCH  20  58
BRANCH  26  61
HETATM   61  O7  UNL     1      12.642  20.393  22.628  1.00  0.00    -0.361 OA
HETATM   62  H38 UNL     1      12.820  20.297  21.677  1.00  0.00     0.217 HD
ENDBRANCH  26  61
TORSDOF 9
ENDMDL
