MODEL 1
REMARK minimizedAffinity -9.61230183
REMARK  6 active torsions:
REMARK  status: ('A' for Active; 'I' for Inactive)
REMARK    1  A    between atoms: C2_2  and  C30_32 
REMARK    2  A    between atoms: C3_3  and  C4_4 
REMARK    3  A    between atoms: C4_4  and  C5_6 
REMARK    4  A    between atoms: C5_6  and  C6_7 
REMARK    5  A    between atoms: C6_7  and  C8_9 
REMARK    6  A    between atoms: C30_32  and  O4_34 
ROOT
HETATM    1  C8  UNL     1      -0.272  51.405 -21.135  1.00  0.00    -0.001 C 
HETATM    2  C9  UNL     1      -0.690  52.134 -19.823  1.00  0.00     0.007 C 
HETATM    3  C10 UNL     1      -2.089  51.626 -19.434  1.00  0.00     0.015 C 
HETATM    4  C11 UNL     1      -2.310  50.379 -20.313  1.00  0.00    -0.013 C 
HETATM    5  C12 UNL     1      -1.602  49.200 -19.577  1.00  0.00     0.021 C 
HETATM    6  C13 UNL     1      -3.739  49.919 -20.565  1.00  0.00    -0.070 C 
HETATM    7  C14 UNL     1      -4.773  50.225 -19.761  1.00  0.00    -0.022 C 
HETATM    8  C15 UNL     1      -6.142  49.664 -19.997  1.00  0.00     0.034 C 
HETATM    9  C16 UNL     1      -5.999  48.203 -20.452  1.00  0.00     0.013 C 
HETATM   10  C17 UNL     1      -7.315  47.366 -20.400  1.00  0.00     0.018 C 
HETATM   11  C18 UNL     1      -7.584  46.900 -18.953  1.00  0.00     0.023 C 
HETATM   12  C19 UNL     1      -8.558  48.143 -20.874  1.00  0.00     0.023 C 
HETATM   13  C20 UNL     1      -7.147  46.093 -21.240  1.00  0.00     0.135 C 
HETATM   14  O2  UNL     1      -8.116  45.463 -21.669  1.00  0.00    -0.297 OA
HETATM   15  C21 UNL     1      -5.745  45.557 -21.439  1.00  0.00     0.080 C 
HETATM   16  C22 UNL     1      -4.705  46.606 -21.847  1.00  0.00     0.017 C 
HETATM   17  C23 UNL     1      -5.189  48.079 -21.794  1.00  0.00    -0.031 C 
HETATM   18  C24 UNL     1      -6.049  48.347 -23.058  1.00  0.00     0.016 C 
HETATM   19  C25 UNL     1      -3.995  49.140 -21.858  1.00  0.00     0.024 C 
HETATM   20  C26 UNL     1      -2.707  48.631 -22.548  1.00  0.00     0.010 C 
HETATM   21  C27 UNL     1      -1.531  49.632 -22.619  1.00  0.00     0.011 C 
HETATM   22  C28 UNL     1      -1.635  50.835 -21.656  1.00  0.00    -0.029 C 
HETATM   23  C29 UNL     1      -2.410  51.985 -22.375  1.00  0.00     0.016 C 
ENDROOT
BRANCH   1  24
HETATM   24  C6  UNL     1       0.588  52.312 -22.061  1.00  0.00    -0.007 C 
HETATM   25  C7  UNL     1       1.079  53.575 -21.345  1.00  0.00     0.011 C 
BRANCH  24  26
HETATM   26  C5  UNL     1      -0.212  52.738 -23.316  1.00  0.00     0.087 C 
BRANCH  26  27
HETATM   27  C4  UNL     1       0.699  53.271 -24.407  1.00  0.00     0.150 C 
HETATM   28  O1  UNL     1       1.234  54.374 -24.328  1.00  0.00    -0.293 OA
BRANCH  27  29
HETATM   29  C3  UNL     1       0.969  52.367 -25.562  1.00  0.00     0.063 C 
HETATM   30  C2  UNL     1       0.560  52.613 -26.819  1.00  0.00     0.015 C 
HETATM   31  C1  UNL     1       0.934  51.746 -27.980  1.00  0.00     0.055 C 
BRANCH  30  32
HETATM   32  C30 UNL     1      -0.285  53.770 -27.168  1.00  0.00     0.171 C 
HETATM   33  O3  UNL     1       0.093  54.923 -27.254  1.00  0.00    -0.646 OA
BRANCH  32  34
HETATM   34  O4  UNL     1      -1.527  53.396 -27.520  1.00  0.00    -0.773 OA
HETATM   35  H44 UNL     1      -1.988  54.246 -27.670  1.00  0.00     0.167 HD
ENDBRANCH  32  34
ENDBRANCH  30  32
ENDBRANCH  27  29
ENDBRANCH  26  27
ENDBRANCH  24  26
ENDBRANCH   1  24
TORSDOF 6
ENDMDL
