MODEL 1
REMARK minimizedAffinity -8.36229515
REMARK CNNscore 0.551377535
REMARK CNNaffinity 7.08291626
REMARK  7 active torsions:
REMARK  status: ('A' for Active; 'I' for Inactive)
REMARK    1  A    between atoms: C2_2  and  C30_32 
REMARK    2  A    between atoms: C3_3  and  C4_4 
REMARK    3  A    between atoms: C4_4  and  O1_5 
REMARK    4  A    between atoms: C4_4  and  C5_6 
REMARK    5  A    between atoms: C5_6  and  C6_7 
REMARK    6  A    between atoms: C6_7  and  C8_9 
REMARK    7  A    between atoms: C30_32  and  O4_34 
ROOT
HETATM    1  C8  UNL     1      -8.660   6.586  14.564  1.00  0.00    -0.002 C 
HETATM    2  C9  UNL     1      -9.163   5.985  13.219  1.00  0.00     0.006 C 
HETATM    3  C10 UNL     1      -7.951   5.376  12.496  1.00  0.00     0.011 C 
HETATM    4  C11 UNL     1      -6.828   5.349  13.551  1.00  0.00    -0.032 C 
HETATM    5  C12 UNL     1      -7.038   4.046  14.385  1.00  0.00     0.016 C 
HETATM    6  C13 UNL     1      -5.396   5.387  12.951  1.00  0.00     0.004 C 
HETATM    7  C14 UNL     1      -4.966   4.076  12.274  1.00  0.00     0.007 C 
HETATM    8  C15 UNL     1      -3.595   4.249  11.629  1.00  0.00     0.007 C 
HETATM    9  C16 UNL     1      -2.507   4.411  12.701  1.00  0.00     0.010 C 
HETATM   10  C17 UNL     1      -1.054   4.620  12.154  1.00  0.00     0.018 C 
HETATM   11  C18 UNL     1      -0.301   3.273  12.154  1.00  0.00     0.023 C 
HETATM   12  C19 UNL     1      -1.024   5.183  10.716  1.00  0.00     0.023 C 
HETATM   13  C20 UNL     1      -0.239   5.576  13.046  1.00  0.00     0.135 C 
HETATM   14  O2  UNL     1       0.683   6.259  12.584  1.00  0.00    -0.297 OA
HETATM   15  C21 UNL     1      -0.478   5.589  14.542  1.00  0.00     0.080 C 
HETATM   16  C22 UNL     1      -1.916   5.300  14.951  1.00  0.00     0.018 C 
HETATM   17  C23 UNL     1      -2.860   5.439  13.776  1.00  0.00    -0.026 A 
HETATM   18  C24 UNL     1      -3.293   6.833  13.414  1.00  0.00     0.021 A 
HETATM   19  C25 UNL     1      -4.336   5.872  13.974  1.00  0.00    -0.027 A 
HETATM   20  C26 UNL     1      -4.822   6.107  15.408  1.00  0.00     0.011 C 
HETATM   21  C27 UNL     1      -6.231   6.695  15.593  1.00  0.00     0.011 C 
HETATM   22  C28 UNL     1      -7.113   6.682  14.336  1.00  0.00    -0.032 C 
HETATM   23  C29 UNL     1      -6.804   7.977  13.525  1.00  0.00     0.016 C 
ENDROOT
BRANCH   1  24
HETATM   24  C6  UNL     1      -9.474   7.848  14.991  1.00  0.00    -0.011 C 
HETATM   25  C7  UNL     1      -9.495   8.026  16.514  1.00  0.00     0.010 C 
BRANCH  24  26
HETATM   26  C5  UNL     1     -10.928   7.756  14.450  1.00  0.00     0.040 C 
BRANCH  26  27
HETATM   27  C4  UNL     1     -11.957   8.709  15.084  1.00  0.00     0.142 C 
BRANCH  27  28
HETATM   28  C3  UNL     1     -12.887   9.341  14.088  1.00  0.00     0.018 C 
HETATM   29  C2  UNL     1     -13.832   8.757  13.316  1.00  0.00     0.010 C 
HETATM   30  C1  UNL     1     -14.114   7.285  13.247  1.00  0.00     0.055 C 
BRANCH  29  31
HETATM   31  C30 UNL     1     -14.691   9.576  12.419  1.00  0.00     0.171 C 
HETATM   32  O3  UNL     1     -14.871  10.777  12.513  1.00  0.00    -0.646 OA
BRANCH  31  33
HETATM   33  O4  UNL     1     -15.293   8.871  11.445  1.00  0.00    -0.773 OA
HETATM   34  H46 UNL     1     -15.801   9.550  10.956  1.00  0.00     0.167 HD
ENDBRANCH  31  33
ENDBRANCH  29  31
ENDBRANCH  27  28
BRANCH  27  35
HETATM   35  O1  UNL     1     -12.718   7.999  16.057  1.00  0.00    -0.392 OA
HETATM   36  H6  UNL     1     -12.093   7.655  16.717  1.00  0.00     0.210 HD
ENDBRANCH  27  35
ENDBRANCH  26  27
ENDBRANCH  24  26
ENDBRANCH   1  24
TORSDOF 7
ENDMDL
