MODEL 1
REMARK minimizedAffinity -9.4313345
REMARK  6 active torsions:
REMARK  status: ('A' for Active; 'I' for Inactive)
REMARK    1  A    between atoms: C2_2  and  C30_32 
REMARK    2  A    between atoms: C3_3  and  C4_4 
REMARK    3  A    between atoms: C4_4  and  C5_6 
REMARK    4  A    between atoms: C5_6  and  C6_7 
REMARK    5  A    between atoms: C6_7  and  C8_9 
REMARK    6  A    between atoms: C30_32  and  O4_34 
ROOT
HETATM    1  C8  UNL     1       0.217  51.728 -23.153  1.00  0.00    -0.001 C 
HETATM    2  C9  UNL     1       0.445  52.508 -21.822  1.00  0.00     0.007 C 
HETATM    3  C10 UNL     1      -0.658  52.078 -20.839  1.00  0.00     0.015 C 
HETATM    4  C11 UNL     1      -1.288  50.825 -21.479  1.00  0.00    -0.013 C 
HETATM    5  C12 UNL     1      -0.372  49.628 -21.077  1.00  0.00     0.021 C 
HETATM    6  C13 UNL     1      -2.696  50.434 -21.060  1.00  0.00    -0.070 C 
HETATM    7  C14 UNL     1      -3.260  50.809 -19.898  1.00  0.00    -0.022 C 
HETATM    8  C15 UNL     1      -4.609  50.308 -19.482  1.00  0.00     0.034 C 
HETATM    9  C16 UNL     1      -4.726  48.831 -19.889  1.00  0.00     0.013 C 
HETATM   10  C17 UNL     1      -5.909  48.059 -19.225  1.00  0.00     0.018 C 
HETATM   11  C18 UNL     1      -5.525  47.642 -17.790  1.00  0.00     0.023 C 
HETATM   12  C19 UNL     1      -7.209  48.881 -19.137  1.00  0.00     0.023 C 
HETATM   13  C20 UNL     1      -6.168  46.757 -19.997  1.00  0.00     0.135 C 
HETATM   14  O2  UNL     1      -7.246  46.163 -19.933  1.00  0.00    -0.297 OA
HETATM   15  C21 UNL     1      -5.011  46.150 -20.763  1.00  0.00     0.080 C 
HETATM   16  C22 UNL     1      -4.233  47.139 -21.640  1.00  0.00     0.017 C 
HETATM   17  C23 UNL     1      -4.597  48.634 -21.443  1.00  0.00    -0.031 C 
HETATM   18  C24 UNL     1      -5.919  48.912 -22.209  1.00  0.00     0.016 C 
HETATM   19  C25 UNL     1      -3.522  49.635 -22.073  1.00  0.00     0.024 C 
HETATM   20  C26 UNL     1      -2.686  49.049 -23.238  1.00  0.00     0.010 C 
HETATM   21  C27 UNL     1      -1.627  49.988 -23.859  1.00  0.00     0.011 C 
HETATM   22  C28 UNL     1      -1.254  51.216 -23.001  1.00  0.00    -0.029 C 
HETATM   23  C29 UNL     1      -2.224  52.387 -23.359  1.00  0.00     0.016 C 
ENDROOT
BRANCH   1  24
HETATM   24  C6  UNL     1       0.624  52.570 -24.398  1.00  0.00    -0.007 C 
HETATM   25  C7  UNL     1      -0.369  53.702 -24.688  1.00  0.00     0.011 C 
BRANCH  24  26
HETATM   26  C5  UNL     1       0.733  51.665 -25.648  1.00  0.00     0.087 C 
BRANCH  26  27
HETATM   27  C4  UNL     1      -0.090  52.179 -26.817  1.00  0.00     0.150 C 
HETATM   28  O1  UNL     1       0.044  53.325 -27.240  1.00  0.00    -0.293 OA
BRANCH  27  29
HETATM   29  C3  UNL     1      -1.085  51.237 -27.402  1.00  0.00     0.063 C 
HETATM   30  C2  UNL     1      -2.407  51.256 -27.148  1.00  0.00     0.015 C 
HETATM   31  C1  UNL     1      -3.143  52.246 -26.297  1.00  0.00     0.055 C 
BRANCH  30  32
HETATM   32  C30 UNL     1      -3.184  50.193 -27.823  1.00  0.00     0.171 C 
HETATM   33  O3  UNL     1      -3.532  49.134 -27.332  1.00  0.00    -0.646 OA
BRANCH  32  34
HETATM   34  O4  UNL     1      -3.504  50.509 -29.086  1.00  0.00    -0.773 OA
HETATM   35  H44 UNL     1      -4.016  49.737 -29.404  1.00  0.00     0.167 HD
ENDBRANCH  32  34
ENDBRANCH  30  32
ENDBRANCH  27  29
ENDBRANCH  26  27
ENDBRANCH  24  26
ENDBRANCH   1  24
TORSDOF 6
ENDMDL
