MODEL 1
REMARK minimizedAffinity -8.28874302
REMARK CNNscore 0.442454875
REMARK CNNaffinity 7.398983
REMARK  12 active torsions:
REMARK  status: ('A' for Active; 'I' for Inactive)
REMARK    1  A    between atoms: O1_2  and  C2_3 
REMARK    2  A    between atoms: C3_5  and  C4_6 
REMARK    3  A    between atoms: C4_6  and  O3_7 
REMARK    4  A    between atoms: C4_6  and  C5_8 
REMARK    5  A    between atoms: C5_8  and  O4_10 
REMARK    6  A    between atoms: C5_8  and  C7_11 
REMARK    7  A    between atoms: C7_11  and  O5_12 
REMARK    8  A    between atoms: C9_14  and  C10_15 
REMARK    9  A    between atoms: C23_28  and  O6_29 
REMARK   10  A    between atoms: O6_29  and  C24_30 
REMARK   11  A    between atoms: C24_30  and  C25_32 
REMARK   12  A    between atoms: C34_41  and  O8_42 
ROOT
HETATM    1  C10 UNL     1      -3.530   5.128  14.111  1.00  0.00     0.004 C 
HETATM    2  C11 UNL     1      -4.001   4.010  13.154  1.00  0.00     0.007 C 
HETATM    3  C12 UNL     1      -5.536   4.102  13.156  1.00  0.00     0.011 C 
HETATM    4  C13 UNL     1      -5.856   5.564  13.449  1.00  0.00    -0.021 A 
HETATM    5  C14 UNL     1      -5.116   6.579  12.595  1.00  0.00     0.022 A 
HETATM    6  C15 UNL     1      -4.601   6.213  13.976  1.00  0.00    -0.027 A 
HETATM    7  C16 UNL     1      -4.651   7.297  15.026  1.00  0.00     0.011 C 
HETATM    8  C17 UNL     1      -6.020   7.500  15.685  1.00  0.00     0.007 C 
HETATM    9  C18 UNL     1      -7.188   7.387  14.680  1.00  0.00     0.005 C 
HETATM   10  C19 UNL     1      -8.578   8.000  15.164  1.00  0.00    -0.035 C 
HETATM   11  C20 UNL     1      -9.055   7.380  16.498  1.00  0.00     0.016 C 
HETATM   12  C21 UNL     1      -8.397   9.533  15.401  1.00  0.00     0.012 C 
HETATM   13  C22 UNL     1      -9.708  10.297  15.588  1.00  0.00     0.034 C 
HETATM   14  C23 UNL     1     -10.686  10.083  14.434  1.00  0.00     0.140 C 
HETATM   15  C29 UNL     1     -10.977   8.577  14.139  1.00  0.00    -0.016 C 
HETATM   16  C30 UNL     1     -11.767   8.522  12.801  1.00  0.00     0.018 C 
HETATM   17  C31 UNL     1     -11.906   7.958  15.203  1.00  0.00     0.018 C 
HETATM   18  C32 UNL     1      -9.604   7.828  13.978  1.00  0.00     0.007 C 
HETATM   19  C33 UNL     1      -9.714   6.348  13.533  1.00  0.00     0.038 C 
HETATM   20  C34 UNL     1      -8.366   5.810  13.028  1.00  0.00     0.128 C 
HETATM   21  C35 UNL     1      -7.238   5.917  14.093  1.00  0.00    -0.005 C 
HETATM   22  C36 UNL     1      -7.526   4.862  15.202  1.00  0.00     0.019 C 
ENDROOT
BRANCH   1  23
HETATM   23  C9  UNL     1      -2.105   5.669  13.918  1.00  0.00     0.048 C 
HETATM   24  C2  UNL     1      -1.891   6.672  12.784  1.00  0.00     0.264 C 
HETATM   25  O2  UNL     1      -0.603   7.264  13.034  1.00  0.00    -0.353 OA
HETATM   26  C3  UNL     1      -0.244   7.025  14.407  1.00  0.00     0.157 C 
HETATM   27  C8  UNL     1      -1.472   6.413  15.079  1.00  0.00     0.044 C 
BRANCH  24  28
HETATM   28  O1  UNL     1      -2.892   7.679  12.783  1.00  0.00    -0.366 OA
HETATM   29  C1  UNL     1      -2.415   8.907  12.251  1.00  0.00     0.204 C 
ENDBRANCH  24  28
BRANCH  26  30
HETATM   30  C4  UNL     1       0.292   8.288  15.107  1.00  0.00     0.183 C 
BRANCH  30  31
HETATM   31  O3  UNL     1       0.264   9.414  14.212  1.00  0.00    -0.390 OA
HETATM   32  H7  UNL     1       0.768  10.126  14.664  1.00  0.00     0.210 HD
ENDBRANCH  30  31
BRANCH  30  33
HETATM   33  C5  UNL     1       1.718   8.178  15.721  1.00  0.00     0.103 C 
HETATM   34  C6  UNL     1       2.762   7.739  14.689  1.00  0.00     0.051 C 
BRANCH  33  35
HETATM   35  O4  UNL     1       1.635   7.133  16.725  1.00  0.00    -0.385 OA
HETATM   36  H11 UNL     1       1.506   6.282  16.270  1.00  0.00     0.210 HD
ENDBRANCH  33  35
BRANCH  33  37
HETATM   37  C7  UNL     1       2.214   9.455  16.447  1.00  0.00     0.204 C 
BRANCH  37  38
HETATM   38  O5  UNL     1       2.250   9.325  17.868  1.00  0.00    -0.398 OA
HETATM   39  H14 UNL     1       1.373   8.976  18.137  1.00  0.00     0.209 HD
ENDBRANCH  37  38
ENDBRANCH  33  37
ENDBRANCH  30  33
ENDBRANCH  26  30
ENDBRANCH   1  23
BRANCH  20  40
HETATM   40  O8  UNL     1      -8.028   6.553  11.851  1.00  0.00    -0.395 OA
HETATM   41  H55 UNL     1      -8.615   6.246  11.139  1.00  0.00     0.210 HD
ENDBRANCH  20  40
BRANCH  14  42
HETATM   42  O6  UNL     1     -11.929  10.748  14.746  1.00  0.00    -0.312 OA
BRANCH  42  43
HETATM   43  C24 UNL     1     -11.842  11.935  15.386  1.00  0.00     0.283 C 
HETATM   44  O7  UNL     1     -11.737  12.109  16.590  1.00  0.00    -0.260 OA
BRANCH  43  45
HETATM   45  C25 UNL     1     -11.802  13.053  14.419  1.00  0.00     0.084 C 
HETATM   46  C26 UNL     1     -10.759  13.853  14.120  1.00  0.00    -0.082 C 
HETATM   47  C27 UNL     1      -9.368  13.723  14.680  1.00  0.00     0.043 C 
HETATM   48  C28 UNL     1     -10.923  14.971  13.126  1.00  0.00     0.043 C 
ENDBRANCH  43  45
ENDBRANCH  42  43
ENDBRANCH  14  42
TORSDOF 12
ENDMDL
