MODEL 1
REMARK minimizedAffinity -9.95372868
REMARK CNNscore 0.537898481
REMARK CNNaffinity 6.6930604
REMARK  8 active torsions:
REMARK  status: ('A' for Active; 'I' for Inactive)
REMARK    1  A    between atoms: C5_5  and  C6_6 
REMARK    2  A    between atoms: C6_6  and  O1_9 
REMARK    3  A    between atoms: C14_16  and  C15_17 
REMARK    4  A    between atoms: C16_19  and  O4_20 
REMARK    5  A    between atoms: C17_21  and  C18_22 
REMARK    6  A    between atoms: C19_24  and  O6_25 
REMARK    7  A    between atoms: C21_27  and  C22_28 
REMARK    8  A    between atoms: C22_28  and  C23_29 
ROOT
HETATM    1  C1  UNL     1      -5.770  46.694 -22.265  1.00  0.00     0.043 C 
HETATM    2  C2  UNL     1      -4.708  47.128 -21.282  1.00  0.00    -0.087 C 
HETATM    3  C3  UNL     1      -4.354  46.323 -20.261  1.00  0.00    -0.024 C 
HETATM    4  C4  UNL     1      -3.328  46.385 -19.152  1.00  0.00     0.035 C 
HETATM    5  C5  UNL     1      -2.543  47.638 -18.627  1.00  0.00     0.023 C 
HETATM    6  C9  UNL     1      -1.459  48.065 -19.672  1.00  0.00     0.011 C 
HETATM    7  C10 UNL     1      -1.018  49.472 -20.110  1.00  0.00     0.039 C 
HETATM    8  C11 UNL     1      -1.739  50.423 -21.126  1.00  0.00     0.068 C 
HETATM    9  C12 UNL     1      -2.832  51.267 -20.425  1.00  0.00     0.047 C 
HETATM   10  O2  UNL     1      -0.695  51.428 -21.361  1.00  0.00    -0.338 OA
HETATM   11  C13 UNL     1      -0.598  52.104 -22.552  1.00  0.00     0.095 A 
HETATM   12  C14 UNL     1       0.473  53.026 -22.633  1.00  0.00     0.070 A 
HETATM   13  C16 UNL     1       0.714  53.716 -23.824  1.00  0.00     0.097 A 
HETATM   14  C17 UNL     1      -0.078  53.438 -24.943  1.00  0.00     0.069 A 
HETATM   15  C19 UNL     1      -1.121  52.498 -24.859  1.00  0.00     0.091 A 
HETATM   16  C20 UNL     1      -1.455  51.862 -23.651  1.00  0.00     0.015 A 
HETATM   17  C21 UNL     1      -2.671  50.956 -23.406  1.00  0.00     0.031 C 
HETATM   18  C26 UNL     1      -2.126  49.786 -22.519  1.00  0.00     0.029 C 
HETATM   19  C27 UNL     1      -2.958  48.483 -22.512  1.00  0.00     0.012 C 
HETATM   20  C28 UNL     1      -4.137  48.485 -21.555  1.00  0.00     0.034 C 
ENDROOT
BRANCH   5  21
HETATM   21  C6  UNL     1      -3.357  48.641 -17.741  1.00  0.00     0.054 C 
HETATM   22  C7  UNL     1      -2.689  48.871 -16.367  1.00  0.00     0.045 C 
HETATM   23  C8  UNL     1      -3.477  50.021 -18.402  1.00  0.00     0.045 C 
BRANCH  21  24
HETATM   24  O1  UNL     1      -4.670  48.182 -17.467  1.00  0.00    -0.390 OA
HETATM   25  H14 UNL     1      -4.597  47.427 -16.855  1.00  0.00     0.210 HD
ENDBRANCH  21  24
ENDBRANCH   5  21
BRANCH  17  26
HETATM   26  C22 UNL     1      -3.573  50.543 -24.599  1.00  0.00     0.014 C 
BRANCH  26  27
HETATM   27  C23 UNL     1      -3.334  49.097 -25.110  1.00  0.00    -0.022 C 
HETATM   28  C24 UNL     1      -4.665  48.459 -25.514  1.00  0.00     0.009 C 
HETATM   29  C25 UNL     1      -2.378  49.072 -26.309  1.00  0.00     0.009 C 
ENDBRANCH  26  27
ENDBRANCH  17  26
BRANCH  12  30
HETATM   30  C15 UNL     1       1.322  53.233 -21.426  1.00  0.00     0.275 C 
HETATM   31  O3  UNL     1       1.724  54.323 -21.039  1.00  0.00    -0.301 OA
ENDBRANCH  12  30
BRANCH  13  32
HETATM   32  O4  UNL     1       1.705  54.659 -23.875  1.00  0.00    -0.359 OA
HETATM   33  H23 UNL     1       1.797  54.997 -24.792  1.00  0.00     0.217 HD
ENDBRANCH  13  32
BRANCH  15  34
HETATM   34  O6  UNL     1      -1.773  52.190 -26.020  1.00  0.00    -0.359 OA
HETATM   35  H25 UNL     1      -1.480  51.293 -26.275  1.00  0.00     0.217 HD
ENDBRANCH  15  34
BRANCH  14  36
HETATM   36  C18 UNL     1       0.177  54.120 -26.232  1.00  0.00     0.275 C 
HETATM   37  O5  UNL     1       0.247  55.345 -26.298  1.00  0.00    -0.301 OA
ENDBRANCH  14  36
TORSDOF 8
ENDMDL
