MODEL 1
REMARK minimizedAffinity -8.9903183
REMARK CNNscore 0.569372892
REMARK CNNaffinity 7.46906328
REMARK  14 active torsions:
REMARK  status: ('A' for Active; 'I' for Inactive)
REMARK    1  A    between atoms: O1_2  and  C2_3 
REMARK    2  A    between atoms: C8_9  and  O2_10 
REMARK    3  A    between atoms: O2_10  and  C9_11 
REMARK    4  A    between atoms: C10_13  and  C11_14 
REMARK    5  A    between atoms: C11_14  and  O4_15 
REMARK    6  A    between atoms: C12_16  and  O5_17 
REMARK    7  A    between atoms: C13_18  and  O6_19 
REMARK    8  A    between atoms: C14_20  and  O7_21 
REMARK    9  A    between atoms: C18_25  and  C19_26 
REMARK   10  A    between atoms: C24_32  and  C25_33 
REMARK   11  A    between atoms: C25_33  and  C27_35 
REMARK   12  A    between atoms: C27_35  and  C28_36 
REMARK   13  A    between atoms: C29_37  and  C30_38 
REMARK   14  A    between atoms: C30_38  and  O9_41 
ROOT
HETATM    1  C2  UNL     1       0.485  52.308 -19.051  1.00  0.00     0.149 C 
HETATM    2  C3  UNL     1       0.366  52.319 -17.552  1.00  0.00     0.009 C 
HETATM    3  C4  UNL     1       0.083  51.191 -16.874  1.00  0.00    -0.066 C 
HETATM    4  C5  UNL     1      -0.120  49.946 -17.729  1.00  0.00     0.031 C 
HETATM    5  C6  UNL     1      -0.408  48.690 -16.894  1.00  0.00     0.013 C 
HETATM    6  C7  UNL     1       0.572  48.614 -15.733  1.00  0.00     0.034 C 
HETATM    7  C8  UNL     1       0.307  49.723 -14.709  1.00  0.00     0.136 C 
HETATM    8  C15 UNL     1      -0.109  51.115 -15.346  1.00  0.00     0.002 C 
HETATM    9  C16 UNL     1      -1.593  51.446 -15.043  1.00  0.00     0.022 C 
HETATM   10  C17 UNL     1       0.716  52.206 -14.607  1.00  0.00     0.022 C 
HETATM   11  C18 UNL     1      -1.109  50.214 -18.928  1.00  0.00     0.027 C 
HETATM   12  C20 UNL     1      -1.175  48.947 -19.844  1.00  0.00     0.018 C 
HETATM   13  C21 UNL     1      -1.802  49.090 -21.243  1.00  0.00     0.011 C 
HETATM   14  C22 UNL     1      -1.823  50.519 -21.799  1.00  0.00    -0.032 C 
HETATM   15  C23 UNL     1      -3.191  51.177 -21.434  1.00  0.00     0.016 C 
HETATM   16  C24 UNL     1      -1.591  50.622 -23.339  1.00  0.00    -0.002 C 
HETATM   17  C33 UNL     1      -1.146  52.092 -23.529  1.00  0.00     0.006 C 
HETATM   18  C34 UNL     1      -0.705  52.603 -22.136  1.00  0.00     0.011 C 
HETATM   19  C35 UNL     1      -0.581  51.341 -21.254  1.00  0.00    -0.029 C 
HETATM   20  C36 UNL     1       0.825  50.735 -21.567  1.00  0.00     0.016 C 
HETATM   21  C37 UNL     1      -0.721  51.561 -19.705  1.00  0.00     0.043 C 
ENDROOT
BRANCH   7  22
HETATM   22  O2  UNL     1      -0.737  49.247 -13.836  1.00  0.00    -0.352 OA
BRANCH  22  23
HETATM   23  C9  UNL     1      -0.279  48.786 -12.559  1.00  0.00     0.292 C 
HETATM   24  O3  UNL     1      -1.281  47.927 -12.003  1.00  0.00    -0.348 OA
HETATM   25  C10 UNL     1      -2.324  48.583 -11.278  1.00  0.00     0.179 C 
HETATM   26  C12 UNL     1      -1.769  49.307 -10.035  1.00  0.00     0.180 C 
HETATM   27  C13 UNL     1      -0.302  49.737 -10.203  1.00  0.00     0.183 C 
HETATM   28  C14 UNL     1       0.071  50.000 -11.659  1.00  0.00     0.204 C 
BRANCH  25  29
HETATM   29  C11 UNL     1      -3.182  49.493 -12.172  1.00  0.00     0.198 C 
BRANCH  29  30
HETATM   30  O4  UNL     1      -3.697  48.765 -13.282  1.00  0.00    -0.398 OA
HETATM   31  H16 UNL     1      -4.156  49.409 -13.849  1.00  0.00     0.209 HD
ENDBRANCH  29  30
ENDBRANCH  25  29
BRANCH  26  32
HETATM   32  O5  UNL     1      -1.816  48.431  -8.888  1.00  0.00    -0.390 OA
HETATM   33  H18 UNL     1      -2.072  48.979  -8.119  1.00  0.00     0.210 HD
ENDBRANCH  26  32
BRANCH  27  34
HETATM   34  O6  UNL     1       0.598  48.744  -9.676  1.00  0.00    -0.390 OA
HETATM   35  H20 UNL     1       0.027  48.126  -9.164  1.00  0.00     0.210 HD
ENDBRANCH  27  34
BRANCH  28  36
HETATM   36  O7  UNL     1       1.469  50.313 -11.767  1.00  0.00    -0.388 OA
HETATM   37  H22 UNL     1       1.871  50.000 -10.926  1.00  0.00     0.210 HD
ENDBRANCH  28  36
ENDBRANCH  22  23
ENDBRANCH   7  22
BRANCH  11  38
HETATM   38  C19 UNL     1      -2.506  50.355 -18.290  1.00  0.00     0.241 C 
HETATM   39  O8  UNL     1      -3.104  51.408 -18.101  1.00  0.00    -0.306 OA
ENDBRANCH  11  38
BRANCH   1  40
HETATM   40  O1  UNL     1       0.524  53.658 -19.533  1.00  0.00    -0.386 OA
HETATM   41  C1  UNL     1       1.719  53.956 -20.250  1.00  0.00     0.202 C 
ENDBRANCH   1  40
BRANCH  16  42
HETATM   42  C25 UNL     1      -2.555  49.991 -24.391  1.00  0.00    -0.010 C 
HETATM   43  C26 UNL     1      -3.070  48.629 -23.889  1.00  0.00     0.010 C 
BRANCH  42  44
HETATM   44  C27 UNL     1      -2.171  49.882 -25.883  1.00  0.00     0.031 C 
BRANCH  44  45
HETATM   45  C28 UNL     1      -1.241  50.920 -26.446  1.00  0.00    -0.027 C 
HETATM   46  C29 UNL     1       0.097  50.796 -26.393  1.00  0.00     0.006 C 
BRANCH  46  47
HETATM   47  C30 UNL     1       1.127  51.730 -26.972  1.00  0.00     0.068 C 
HETATM   48  C31 UNL     1       2.526  51.310 -26.514  1.00  0.00     0.050 C 
HETATM   49  C32 UNL     1       1.113  51.873 -28.502  1.00  0.00     0.050 C 
BRANCH  47  50
HETATM   50  O9  UNL     1       0.860  53.012 -26.400  1.00  0.00    -0.387 OA
HETATM   51  H52 UNL     1       0.026  53.328 -26.792  1.00  0.00     0.211 HD
ENDBRANCH  47  50
ENDBRANCH  46  47
ENDBRANCH  44  45
ENDBRANCH  42  44
ENDBRANCH  16  42
TORSDOF 14
ENDMDL
