MODEL 1
REMARK minimizedAffinity -7.74103689
REMARK CNNscore 0.605791688
REMARK CNNaffinity 7.46554613
REMARK  6 active torsions:
REMARK  status: ('A' for Active; 'I' for Inactive)
REMARK    1  A    between atoms: C3_3  and  C4_4 
REMARK    2  A    between atoms: C4_4  and  O1_5 
REMARK    3  A    between atoms: C7_9  and  O3_10 
REMARK    4  A    between atoms: C24_28  and  C25_29 
REMARK    5  A    between atoms: C43_49  and  O7_51 
REMARK    6  A    between atoms: C45_52  and  O8_53 
ROOT
HETATM    1  C1  UNL     1       3.567  48.074 -10.170  1.00  0.00     0.013 C 
HETATM    2  C2  UNL     1       2.796  49.336 -10.529  1.00  0.00     0.023 C 
HETATM    3  C3  UNL     1       3.688  50.520 -10.973  1.00  0.00     0.047 C 
HETATM    4  C5  UNL     1       3.047  51.736 -10.278  1.00  0.00     0.160 C 
HETATM    5  O2  UNL     1       1.738  51.293  -9.871  1.00  0.00    -0.373 OA
HETATM    6  C6  UNL     1       1.884  49.915  -9.442  1.00  0.00     0.167 C 
HETATM    7  C7  UNL     1       2.332  49.872  -7.948  1.00  0.00     0.226 C 
HETATM    8  C8  UNL     1       1.687  50.987  -7.224  1.00  0.00    -0.072 C 
HETATM    9  C9  UNL     1       1.269  52.046  -6.840  1.00  0.00    -0.103 C 
HETATM   10  C10 UNL     1       0.860  53.422  -6.514  1.00  0.00     0.100 C 
HETATM   11  C11 UNL     1       2.094  54.306  -6.233  1.00  0.00     0.014 C 
HETATM   12  C12 UNL     1       1.842  55.229  -4.971  1.00  0.00     0.000 C 
HETATM   13  C13 UNL     1       0.798  56.320  -5.237  1.00  0.00     0.006 C 
HETATM   14  C14 UNL     1       0.467  56.542  -6.698  1.00  0.00     0.001 C 
HETATM   15  C15 UNL     1       1.618  56.361  -7.688  1.00  0.00     0.014 C 
HETATM   16  C16 UNL     1       2.653  55.218  -7.404  1.00  0.00     0.006 C 
HETATM   17  C17 UNL     1       3.170  54.513  -8.749  1.00  0.00     0.034 C 
HETATM   18  C18 UNL     1       4.462  55.285  -9.160  1.00  0.00     0.012 C 
HETATM   19  C19 UNL     1       4.657  56.401  -8.143  1.00  0.00     0.044 C 
HETATM   20  C20 UNL     1       4.073  55.792  -6.865  1.00  0.00     0.094 C 
HETATM   21  O4  UNL     1       4.909  54.680  -6.440  1.00  0.00    -0.363 OA
HETATM   22  C21 UNL     1       6.338  54.810  -6.403  1.00  0.00     0.263 C 
HETATM   23  C22 UNL     1       6.867  55.962  -5.655  1.00  0.00    -0.080 C 
HETATM   24  C23 UNL     1       7.343  56.905  -5.079  1.00  0.00    -0.093 C 
HETATM   25  C24 UNL     1       7.900  58.097  -4.381  1.00  0.00     0.121 C 
HETATM   26  C31 UNL     1       7.411  58.172  -2.915  1.00  0.00     0.190 C 
HETATM   27  O5  UNL     1       6.018  58.491  -2.918  1.00  0.00    -0.384 OA
HETATM   28  C32 UNL     1       5.311  58.311  -1.692  1.00  0.00     0.122 C 
HETATM   29  C33 UNL     1       5.215  56.844  -1.293  1.00  0.00     0.033 C 
HETATM   30  C34 UNL     1       4.674  56.028  -2.459  1.00  0.00     0.013 C 
HETATM   31  C35 UNL     1       3.310  56.519  -3.065  1.00  0.00    -0.025 C 
HETATM   32  C36 UNL     1       2.209  56.009  -2.099  1.00  0.00     0.016 C 
HETATM   33  C37 UNL     1       3.201  55.823  -4.485  1.00  0.00     0.031 C 
HETATM   34  C38 UNL     1       3.817  56.622  -5.629  1.00  0.00    -0.036 C 
HETATM   35  C39 UNL     1       4.047  57.938  -5.578  1.00  0.00     0.057 C 
HETATM   36  C40 UNL     1       3.673  58.752  -4.414  1.00  0.00     0.154 C 
HETATM   37  O6  UNL     1       3.686  59.977  -4.557  1.00  0.00    -0.293 OA
HETATM   38  C41 UNL     1       3.203  58.084  -3.123  1.00  0.00     0.071 C 
HETATM   39  C42 UNL     1       3.877  58.802  -1.927  1.00  0.00     0.045 C 
HETATM   40  C43 UNL     1       2.276  54.249 -10.026  1.00  0.00     0.087 C 
HETATM   41  C44 UNL     1       2.082  55.523 -10.896  1.00  0.00     0.049 C 
HETATM   42  C45 UNL     1       2.899  53.108 -10.971  1.00  0.00     0.181 C 
ENDROOT
BRANCH  25  43
HETATM   43  C25 UNL     1       9.418  58.133  -4.447  1.00  0.00    -0.040 A 
HETATM   44  C26 UNL     1      10.188  56.956  -4.452  1.00  0.00     0.008 A 
HETATM   45  C27 UNL     1      11.583  57.016  -4.491  1.00  0.00     0.001 A 
HETATM   46  C28 UNL     1      12.226  58.254  -4.521  1.00  0.00     0.000 A 
HETATM   47  C29 UNL     1      11.479  59.427  -4.521  1.00  0.00     0.001 A 
HETATM   48  C30 UNL     1      10.083  59.369  -4.477  1.00  0.00     0.008 A 
ENDBRANCH  25  43
BRANCH  40  49
HETATM   49  O7  UNL     1       0.961  53.867  -9.619  1.00  0.00    -0.387 OA
HETATM   50  H54 UNL     1       0.932  52.886  -9.588  1.00  0.00     0.210 HD
ENDBRANCH  40  49
BRANCH  42  51
HETATM   51  O8  UNL     1       2.077  52.898 -12.137  1.00  0.00    -0.390 OA
HETATM   52  H56 UNL     1       1.569  53.708 -12.323  1.00  0.00     0.210 HD
ENDBRANCH  42  51
BRANCH   7  53
HETATM   53  O3  UNL     1       3.752  50.016  -7.806  1.00  0.00    -0.381 OA
HETATM   54  H12 UNL     1       3.902  50.499  -6.976  1.00  0.00     0.211 HD
ENDBRANCH   7  53
BRANCH   3  55
HETATM   55  C4  UNL     1       3.882  50.584 -12.487  1.00  0.00     0.172 C 
BRANCH  55  56
HETATM   56  O1  UNL     1       4.842  49.652 -12.965  1.00  0.00    -0.400 OA
HETATM   57  H8  UNL     1       4.521  48.769 -12.684  1.00  0.00     0.209 HD
ENDBRANCH  55  56
ENDBRANCH   3  55
TORSDOF 6
ENDMDL
