MODEL 1
REMARK minimizedAffinity -9.163908
REMARK CNNscore 0.345529914
REMARK CNNaffinity 7.21547651
REMARK  10 active torsions:
REMARK  status: ('A' for Active; 'I' for Inactive)
REMARK    1  A    between atoms: O1_2  and  C2_3 
REMARK    2  A    between atoms: C2_3  and  C3_5 
REMARK    3  A    between atoms: C3_5  and  C4_6 
REMARK    4  A    between atoms: C3_5  and  N1_13 
REMARK    5  A    between atoms: C4_6  and  C5_7 
REMARK       I    between atoms: N1_13  and  C11_14 
REMARK    6  A    between atoms: C11_14  and  C12_16 
REMARK    7  A    between atoms: C12_16  and  O4_17 
REMARK    8  A    between atoms: O4_17  and  N2_18 
REMARK    9  A    between atoms: C27_34  and  O5_35 
REMARK   10  A    between atoms: C27_34  and  C28_36 
ROOT
HETATM    1  N2  UNL     1      -3.161   4.826  13.901  1.00  0.00    -0.271 N 
ATOM      2  H2  UNL     1      -2.895   3.921  13.510  1.00  0.00     0.194 HD
HETATM    3  C13 UNL     1      -4.355   5.330  13.813  1.00  0.00     0.032 C 
HETATM    4  C14 UNL     1      -4.788   6.641  14.374  1.00  0.00     0.030 C 
HETATM    5  C15 UNL     1      -6.091   6.974  14.457  1.00  0.00    -0.069 C 
HETATM    6  C16 UNL     1      -6.482   8.367  14.900  1.00  0.00     0.035 C 
HETATM    7  C17 UNL     1      -7.842   8.453  15.592  1.00  0.00     0.010 C 
HETATM    8  C18 UNL     1      -8.975   7.699  14.866  1.00  0.00    -0.004 C 
HETATM    9  C19 UNL     1      -8.457   6.899  13.629  1.00  0.00     0.002 C 
HETATM   10  C20 UNL     1      -9.602   6.136  12.923  1.00  0.00     0.007 C 
HETATM   11  C21 UNL     1     -10.805   7.042  12.594  1.00  0.00     0.013 C 
HETATM   12  C22 UNL     1     -11.331   7.789  13.834  1.00  0.00    -0.002 C 
HETATM   13  C23 UNL     1     -11.936   6.764  14.834  1.00  0.00     0.019 C 
HETATM   14  C24 UNL     1     -10.137   8.597  14.422  1.00  0.00     0.002 C 
HETATM   15  C25 UNL     1     -10.801   9.498  15.457  1.00  0.00     0.009 C 
HETATM   16  C26 UNL     1     -12.167   9.852  14.839  1.00  0.00     0.047 C 
HETATM   17  C27 UNL     1     -12.343   8.949  13.584  1.00  0.00     0.125 C 
HETATM   18  C30 UNL     1      -7.211   6.028  14.017  1.00  0.00    -0.016 C 
HETATM   19  C31 UNL     1      -7.544   5.061  15.180  1.00  0.00     0.020 C 
HETATM   20  C32 UNL     1      -6.695   5.218  12.804  1.00  0.00     0.020 C 
HETATM   21  C33 UNL     1      -5.385   4.485  13.081  1.00  0.00     0.060 C 
ENDROOT
BRANCH   1  22
HETATM   22  O4  UNL     1      -2.278   5.667  14.595  1.00  0.00    -0.271 OA
BRANCH  22  23
HETATM   23  C12 UNL     1      -1.608   6.504  13.657  1.00  0.00     0.303 C 
BRANCH  23  24
HETATM   24  C11 UNL     1      -0.275   5.872  13.287  1.00  0.00     0.244 C 
HETATM   25  N1  UNL     1       0.637   6.765  12.758  1.00  0.00    -0.345 N 
HETATM   26  H12 UNL     1       0.472   7.748  12.956  1.00  0.00     0.163 HD
HETATM   27  O3  UNL     1      -0.064   4.666  13.394  1.00  0.00    -0.271 OA
BRANCH  25  28
HETATM   28  C3  UNL     1       2.007   6.369  12.399  1.00  0.00     0.188 C 
BRANCH  28  29
HETATM   29  C2  UNL     1       2.938   7.590  12.304  1.00  0.00     0.281 C 
HETATM   30  O2  UNL     1       2.576   8.717  11.982  1.00  0.00    -0.263 OA
BRANCH  29  31
HETATM   31  O1  UNL     1       4.220   7.273  12.671  1.00  0.00    -0.325 OA
HETATM   32  C1  UNL     1       5.096   7.030  11.569  1.00  0.00     0.213 C 
ENDBRANCH  29  31
ENDBRANCH  28  29
BRANCH  28  33
HETATM   33  C4  UNL     1       1.995   5.636  11.046  1.00  0.00     0.074 C 
BRANCH  33  34
HETATM   34  C5  UNL     1       1.711   6.558   9.883  1.00  0.00    -0.056 A 
HETATM   35  C6  UNL     1       2.624   6.686   8.829  1.00  0.00     0.007 A 
HETATM   36  C7  UNL     1       2.349   7.538   7.757  1.00  0.00     0.001 A 
HETATM   37  C8  UNL     1       1.161   8.263   7.728  1.00  0.00     0.000 A 
HETATM   38  C9  UNL     1       0.242   8.136   8.768  1.00  0.00     0.001 A 
HETATM   39  C10 UNL     1       0.514   7.286   9.841  1.00  0.00     0.007 A 
ENDBRANCH  33  34
ENDBRANCH  28  33
ENDBRANCH  25  28
ENDBRANCH  23  24
ENDBRANCH  22  23
ENDBRANCH   1  22
BRANCH  17  40
HETATM   40  O5  UNL     1     -11.943   9.712  12.437  1.00  0.00    -0.381 OA
HETATM   41  H34 UNL     1     -12.465  10.536  12.431  1.00  0.00     0.211 HD
ENDBRANCH  17  40
BRANCH  17  42
HETATM   42  C28 UNL     1     -13.808   8.497  13.379  1.00  0.00     0.158 C 
HETATM   43  C29 UNL     1     -14.049   7.227  12.600  1.00  0.00     0.094 C 
HETATM   44  O6  UNL     1     -14.762   9.115  13.860  1.00  0.00    -0.295 OA
ENDBRANCH  17  42
TORSDOF 10
ENDMDL
