MODEL 1
REMARK minimizedAffinity -8.34826088
REMARK CNNscore 0.481464386
REMARK CNNaffinity 6.86713076
REMARK  8 active torsions:
REMARK  status: ('A' for Active; 'I' for Inactive)
REMARK    1  A    between atoms: C4_5  and  C5_6 
REMARK    2  A    between atoms: C5_6  and  O2_7 
REMARK    3  A    between atoms: C5_6  and  C6_8 
REMARK    4  A    between atoms: C6_8  and  O3_10 
REMARK    5  A    between atoms: C6_8  and  C8_11 
REMARK    6  A    between atoms: C15_19  and  C16_20 
REMARK    7  A    between atoms: C38_44  and  C39_45 
REMARK    8  A    between atoms: C39_45  and  O7_46 
ROOT
HETATM    1  C8  UNL     1     -12.779 -12.698  22.956  1.00  0.00     0.034 C 
HETATM    2  C9  UNL     1     -14.070 -11.907  22.622  1.00  0.00     0.012 C 
HETATM    3  C10 UNL     1     -14.977 -11.974  23.860  1.00  0.00     0.044 C 
HETATM    4  C11 UNL     1     -14.032 -12.345  25.023  1.00  0.00     0.093 C 
HETATM    5  O4  UNL     1     -13.202 -11.207  25.361  1.00  0.00    -0.363 OA
HETATM    6  C12 UNL     1     -13.880 -10.007  25.752  1.00  0.00     0.263 C 
HETATM    7  C13 UNL     1     -13.457  -9.573  27.093  1.00  0.00    -0.080 C 
HETATM    8  C14 UNL     1     -13.181  -9.218  28.207  1.00  0.00    -0.093 C 
HETATM    9  C15 UNL     1     -12.855  -8.858  29.612  1.00  0.00     0.121 C 
HETATM   10  C22 UNL     1     -13.867  -9.503  30.601  1.00  0.00     0.190 C 
HETATM   11  O5  UNL     1     -13.488 -10.823  31.035  1.00  0.00    -0.384 OA
HETATM   12  C23 UNL     1     -13.691 -11.857  30.074  1.00  0.00     0.122 C 
HETATM   13  C24 UNL     1     -12.700 -12.983  30.363  1.00  0.00     0.033 C 
HETATM   14  C25 UNL     1     -13.039 -14.317  29.692  1.00  0.00     0.013 C 
HETATM   15  C26 UNL     1     -14.073 -14.232  28.538  1.00  0.00    -0.026 C 
HETATM   16  C27 UNL     1     -14.466 -15.691  28.175  1.00  0.00     0.016 C 
HETATM   17  C28 UNL     1     -15.351 -13.547  29.108  1.00  0.00     0.071 C 
HETATM   18  C29 UNL     1     -15.129 -12.357  30.061  1.00  0.00     0.045 C 
HETATM   19  C30 UNL     1     -16.337 -13.179  28.022  1.00  0.00     0.154 C 
HETATM   20  O6  UNL     1     -17.547 -13.151  28.233  1.00  0.00    -0.293 OA
HETATM   21  C31 UNL     1     -15.849 -12.807  26.680  1.00  0.00     0.057 C 
HETATM   22  C32 UNL     1     -14.553 -12.896  26.343  1.00  0.00    -0.036 C 
HETATM   23  C33 UNL     1     -13.477 -13.473  27.277  1.00  0.00     0.026 C 
HETATM   24  C34 UNL     1     -12.380 -14.303  26.548  1.00  0.00     0.011 C 
HETATM   25  C35 UNL     1     -11.927 -13.728  25.201  1.00  0.00     0.014 C 
HETATM   26  C36 UNL     1     -13.143 -13.428  24.302  1.00  0.00    -0.002 C 
HETATM   27  C37 UNL     1     -13.924 -14.750  24.046  1.00  0.00     0.019 C 
ENDROOT
BRANCH   1  28
HETATM   28  C6  UNL     1     -12.129 -13.488  21.760  1.00  0.00     0.087 C 
HETATM   29  C7  UNL     1     -12.816 -13.309  20.403  1.00  0.00     0.049 C 
BRANCH  28  30
HETATM   30  C5  UNL     1     -10.574 -13.282  21.621  1.00  0.00     0.181 C 
BRANCH  30  31
HETATM   31  C4  UNL     1      -9.713 -13.170  22.891  1.00  0.00     0.159 C 
HETATM   32  O1  UNL     1      -8.514 -13.976  22.706  1.00  0.00    -0.382 OA
HETATM   33  C3  UNL     1      -7.637 -13.640  23.795  1.00  0.00     0.173 C 
HETATM   34  C2  UNL     1      -8.028 -12.243  24.282  1.00  0.00     0.014 C 
HETATM   35  C1  UNL     1      -8.495 -12.251  25.743  1.00  0.00     0.012 C 
HETATM   36  C38 UNL     1      -9.139 -11.817  23.305  1.00  0.00     0.046 C 
BRANCH  36  37
HETATM   37  C39 UNL     1      -8.518 -11.027  22.152  1.00  0.00     0.172 C 
BRANCH  37  38
HETATM   38  O7  UNL     1      -7.106 -10.971  22.345  1.00  0.00    -0.400 OA
HETATM   39  H52 UNL     1      -6.689 -11.570  21.700  1.00  0.00     0.209 HD
ENDBRANCH  37  38
ENDBRANCH  36  37
ENDBRANCH  30  31
BRANCH  30  40
HETATM   40  O2  UNL     1     -10.049 -14.377  20.833  1.00  0.00    -0.390 OA
HETATM   41  H9  UNL     1      -9.077 -14.299  20.913  1.00  0.00     0.210 HD
ENDBRANCH  30  40
ENDBRANCH  28  30
BRANCH  28  42
HETATM   42  O3  UNL     1     -12.272 -14.891  22.074  1.00  0.00    -0.387 OA
HETATM   43  H13 UNL     1     -11.596 -15.064  22.763  1.00  0.00     0.210 HD
ENDBRANCH  28  42
ENDBRANCH   1  28
BRANCH   9  44
HETATM   44  C16 UNL     1     -12.778  -7.345  29.752  1.00  0.00    -0.040 A 
HETATM   45  C17 UNL     1     -13.380  -6.482  28.829  1.00  0.00     0.008 A 
HETATM   46  C18 UNL     1     -13.279  -5.096  28.971  1.00  0.00     0.001 A 
HETATM   47  C19 UNL     1     -12.549  -4.553  30.028  1.00  0.00     0.000 A 
HETATM   48  C20 UNL     1     -11.934  -5.395  30.951  1.00  0.00     0.001 A 
HETATM   49  C21 UNL     1     -12.050  -6.782  30.818  1.00  0.00     0.008 A 
ENDBRANCH   9  44
TORSDOF 8
ENDMDL
