MODEL 1
REMARK minimizedAffinity -6.18784809
REMARK CNNscore 0.312624693
REMARK CNNaffinity 6.94967413
REMARK  10 active torsions:
REMARK  status: ('A' for Active; 'I' for Inactive)
REMARK    1  A    between atoms: C16_18  and  C17_19 
REMARK    2  A    between atoms: C26_30  and  C27_31 
REMARK    3  A    between atoms: C27_31  and  O1_33 
REMARK    4  A    between atoms: C30_35  and  C31_36 
REMARK    5  A    between atoms: C31_36  and  O3_38 
REMARK    6  A    between atoms: C37_44  and  O4_45 
REMARK    7  A    between atoms: C40_48  and  C41_49 
REMARK    8  A    between atoms: C40_48  and  C42_51 
REMARK    9  A    between atoms: C41_49  and  O5_50 
REMARK   10  A    between atoms: C42_51  and  O7_53 
ROOT
HETATM    1  C17 UNL     1     -14.968   7.122  23.231  1.00  0.00     0.013 A 
HETATM    2  C18 UNL     1     -14.711   5.981  24.044  1.00  0.00     0.053 A 
HETATM    3  N3  UNL     1     -14.937   5.796  25.387  1.00  0.00    -0.357 N 
HETATM    4  C19 UNL     1     -14.627   4.519  25.799  1.00  0.00     0.038 A 
HETATM    5  C20 UNL     1     -14.074   3.880  24.700  1.00  0.00    -0.020 A 
HETATM    6  C21 UNL     1     -13.467   2.515  24.636  1.00  0.00     0.072 C 
HETATM    7  C22 UNL     1     -14.165   1.434  25.463  1.00  0.00     0.277 C 
HETATM    8  N4  UNL     1     -14.276   1.613  26.911  1.00  0.00     0.096 N 
HETATM    9  C23 UNL     1     -13.001   1.855  27.608  1.00  0.00     0.277 C 
HETATM   10  C24 UNL     1     -13.207   2.873  28.742  1.00  0.00     0.016 C 
HETATM   11  C25 UNL     1     -14.336   2.375  29.657  1.00  0.00     0.015 C 
HETATM   12  C26 UNL     1     -15.637   2.196  28.841  1.00  0.00     0.049 C 
HETATM   13  C29 UNL     1     -15.335   2.567  27.340  1.00  0.00     0.253 C 
HETATM   14  C30 UNL     1     -14.887   4.071  27.250  1.00  0.00     0.122 C 
HETATM   15  C33 UNL     1     -13.610   4.230  28.123  1.00  0.00     0.035 C 
HETATM   16  C34 UNL     1     -14.141   4.797  23.593  1.00  0.00    -0.000 A 
HETATM   17  C35 UNL     1     -13.760   4.712  22.243  1.00  0.00     0.017 A 
HETATM   18  C36 UNL     1     -14.004   5.790  21.395  1.00  0.00     0.038 A 
HETATM   19  C37 UNL     1     -14.602   6.953  21.879  1.00  0.00     0.075 A 
HETATM   20  H19 UNL     1     -15.305   6.519  25.989  1.00  0.00     0.166 HD
ENDROOT
BRANCH   1  21
HETATM   21  C16 UNL     1     -15.588   8.384  23.848  1.00  0.00     0.075 C 
HETATM   22  C9  UNL     1     -16.503   9.255  23.022  1.00  0.00     0.025 A 
HETATM   23  C8  UNL     1     -16.816  10.613  23.034  1.00  0.00    -0.020 A 
HETATM   24  N2  UNL     1     -17.311   8.665  22.074  1.00  0.00    -0.358 N 
HETATM   25  C7  UNL     1     -16.284  11.716  23.912  1.00  0.00     0.079 C 
HETATM   26  C15 UNL     1     -17.876  10.801  22.066  1.00  0.00    -0.001 A 
HETATM   27  C6  UNL     1     -14.811  12.223  23.771  1.00  0.00     0.248 C 
HETATM   28  N1  UNL     1     -14.183  12.248  22.434  1.00  0.00     0.094 N 
HETATM   29  C40 UNL     1     -13.788  11.588  24.772  1.00  0.00     0.107 C 
HETATM   30  C4  UNL     1     -13.827  10.930  21.909  1.00  0.00     0.306 C 
HETATM   31  C5  UNL     1     -14.907  13.036  21.443  1.00  0.00     0.310 C 
HETATM   32  C3  UNL     1     -13.095  10.036  22.905  1.00  0.00    -0.051 C 
HETATM   33  C2  UNL     1     -12.053   9.289  22.483  1.00  0.00    -0.026 C 
HETATM   34  C39 UNL     1     -13.537  10.105  24.361  1.00  0.00     0.039 C 
HETATM   35  C1  UNL     1     -11.222   8.329  23.275  1.00  0.00     0.036 C 
HETATM   36  C38 UNL     1     -14.650   9.123  24.820  1.00  0.00     0.026 C 
HETATM   37  C10 UNL     1     -18.153   9.568  21.489  1.00  0.00     0.043 A 
HETATM   38  C14 UNL     1     -18.632  11.914  21.636  1.00  0.00     0.014 A 
HETATM   39  C11 UNL     1     -19.131   9.383  20.503  1.00  0.00     0.030 A 
HETATM   40  C12 UNL     1     -19.857  10.504  20.095  1.00  0.00     0.002 A 
HETATM   41  C13 UNL     1     -19.613  11.754  20.652  1.00  0.00     0.001 A 
HETATM   42  H13 UNL     1     -17.265   7.686  21.826  1.00  0.00     0.166 HD
BRANCH  29  43
HETATM   43  C41 UNL     1     -12.454  12.414  24.754  1.00  0.00     0.186 C 
BRANCH  43  44
HETATM   44  O5  UNL     1     -11.290  11.628  25.030  1.00  0.00    -0.399 OA
HETATM   45  H49 UNL     1     -11.380  11.244  25.924  1.00  0.00     0.209 HD
ENDBRANCH  43  44
ENDBRANCH  29  43
BRANCH  29  46
HETATM   46  C42 UNL     1     -14.285  11.792  26.208  1.00  0.00     0.272 C 
HETATM   47  O6  UNL     1     -15.338  11.344  26.650  1.00  0.00    -0.264 OA
BRANCH  46  48
HETATM   48  O7  UNL     1     -13.449  12.598  26.925  1.00  0.00    -0.326 OA
HETATM   49  C43 UNL     1     -14.099  13.501  27.820  1.00  0.00     0.213 C 
ENDBRANCH  46  48
ENDBRANCH  29  46
ENDBRANCH   1  21
BRANCH  19  50
HETATM   50  O4  UNL     1     -14.854   7.950  20.979  1.00  0.00    -0.360 OA
HETATM   51  H43 UNL     1     -14.302   7.822  20.190  1.00  0.00     0.217 HD
ENDBRANCH  19  50
BRANCH  14  52
HETATM   52  C31 UNL     1     -16.071   4.935  27.781  1.00  0.00     0.275 C 
HETATM   53  O2  UNL     1     -17.243   4.791  27.465  1.00  0.00    -0.264 OA
BRANCH  52  54
HETATM   54  O3  UNL     1     -15.623   5.972  28.556  1.00  0.00    -0.326 OA
HETATM   55  C32 UNL     1     -16.412   7.158  28.467  1.00  0.00     0.213 C 
ENDBRANCH  52  54
ENDBRANCH  14  52
BRANCH  12  56
HETATM   56  C27 UNL     1     -16.279   0.794  28.991  1.00  0.00     0.120 C 
HETATM   57  C28 UNL     1     -16.881   0.572  30.373  1.00  0.00     0.040 C 
BRANCH  56  58
HETATM   58  O1  UNL     1     -15.331  -0.241  28.764  1.00  0.00    -0.396 OA
HETATM   59  H34 UNL     1     -14.874  -0.004  27.927  1.00  0.00     0.210 HD
ENDBRANCH  56  58
ENDBRANCH  12  56
TORSDOF 10
ENDMDL
