MODEL 1
REMARK minimizedAffinity -7.88283157
REMARK  11 active torsions:
REMARK  status: ('A' for Active; 'I' for Inactive)
REMARK    1  A    between atoms: C5_5  and  C6_6 
REMARK    2  A    between atoms: C6_6  and  C8_8 
REMARK    3  A    between atoms: C8_8  and  O1_9 
REMARK    4  A    between atoms: O1_9  and  C9_10 
REMARK    5  A    between atoms: C9_10  and  C10_12 
REMARK    6  A    between atoms: C10_12  and  C11_13 
REMARK    7  A    between atoms: C17_20  and  O4_22 
REMARK    8  A    between atoms: C22_26  and  O5_28 
REMARK    9  A    between atoms: O5_28  and  C24_29 
REMARK   10  A    between atoms: C24_29  and  C25_31 
REMARK   11  A    between atoms: C25_31  and  C26_32 
ROOT
HETATM    1  C1  UNL     1      -3.323   1.009  11.961  1.00  0.00     0.015 C 
HETATM    2  C2  UNL     1      -3.518   2.311  11.690  1.00  0.00    -0.077 C 
HETATM    3  C3  UNL     1      -3.056   2.918  10.388  1.00  0.00     0.034 C 
HETATM    4  C4  UNL     1      -2.673   4.397  10.522  1.00  0.00     0.010 C 
HETATM    5  C5  UNL     1      -2.094   4.761  11.904  1.00  0.00    -0.001 C 
HETATM    6  C13 UNL     1      -3.204   4.533  12.979  1.00  0.00     0.037 C 
HETATM    7  C14 UNL     1      -4.145   3.261  12.688  1.00  0.00     0.090 C 
HETATM    8  C15 UNL     1      -5.634   3.553  12.234  1.00  0.00     0.138 C 
HETATM    9  O3  UNL     1      -5.900   3.951  11.096  1.00  0.00    -0.297 OA
HETATM   10  C16 UNL     1      -6.775   3.379  13.276  1.00  0.00     0.119 C 
HETATM   11  C17 UNL     1      -7.351   4.704  13.919  1.00  0.00     0.087 C 
HETATM   12  C18 UNL     1      -7.713   4.432  15.383  1.00  0.00     0.049 C 
HETATM   13  C19 UNL     1      -6.328   5.841  13.764  1.00  0.00     0.156 C 
HETATM   14  C20 UNL     1      -6.298   7.145  14.548  1.00  0.00     0.038 C 
HETATM   15  C21 UNL     1      -4.826   7.579  14.862  1.00  0.00     0.043 C 
HETATM   16  C22 UNL     1      -3.690   7.117  13.851  1.00  0.00     0.093 C 
HETATM   17  C23 UNL     1      -3.485   8.173  12.752  1.00  0.00     0.049 C 
HETATM   18  C28 UNL     1      -4.103   5.767  13.191  1.00  0.00     0.162 C 
HETATM   19  O7  UNL     1      -5.088   5.227  14.066  1.00  0.00    -0.374 OA
ENDROOT
BRANCH   5  20
HETATM   20  C6  UNL     1      -0.758   4.013  12.238  1.00  0.00     0.010 C 
HETATM   21  C7  UNL     1      -0.511   2.809  11.312  1.00  0.00     0.012 C 
BRANCH  20  22
HETATM   22  C8  UNL     1       0.468   4.948  12.136  1.00  0.00     0.183 C 
BRANCH  22  23
HETATM   23  O1  UNL     1       0.852   5.064  10.753  1.00  0.00    -0.321 OA
BRANCH  23  24
HETATM   24  C9  UNL     1       1.782   6.022  10.485  1.00  0.00     0.258 C 
HETATM   25  O2  UNL     1       2.860   6.135  11.052  1.00  0.00    -0.265 OA
BRANCH  24  26
HETATM   26  C10 UNL     1       1.289   6.901   9.362  1.00  0.00     0.111 C 
BRANCH  26  27
HETATM   27  C11 UNL     1       2.268   6.928   8.190  1.00  0.00     0.005 C 
HETATM   28  C12 UNL     1       2.823   8.325   7.962  1.00  0.00     0.005 C 
ENDBRANCH  26  27
ENDBRANCH  24  26
ENDBRANCH  23  24
ENDBRANCH  22  23
ENDBRANCH  20  22
ENDBRANCH   5  20
BRANCH  16  29
HETATM   29  O5  UNL     1      -2.439   6.885  14.556  1.00  0.00    -0.308 OA
BRANCH  29  30
HETATM   30  C24 UNL     1      -1.707   7.938  15.024  1.00  0.00     0.259 C 
HETATM   31  O6  UNL     1      -0.866   8.558  14.389  1.00  0.00    -0.265 OA
BRANCH  30  32
HETATM   32  C25 UNL     1      -2.065   8.193  16.468  1.00  0.00     0.111 C 
BRANCH  32  33
HETATM   33  C26 UNL     1      -2.548   9.616  16.731  1.00  0.00     0.005 C 
HETATM   34  C27 UNL     1      -2.531   9.973  18.211  1.00  0.00     0.005 C 
ENDBRANCH  32  33
ENDBRANCH  30  32
ENDBRANCH  29  30
ENDBRANCH  16  29
BRANCH  11  35
HETATM   35  O4  UNL     1      -8.558   5.091  13.254  1.00  0.00    -0.387 OA
HETATM   36  H28 UNL     1      -9.173   4.335  13.266  1.00  0.00     0.210 HD
ENDBRANCH  11  35
TORSDOF 11
ENDMDL
