MODEL 1
REMARK minimizedAffinity -9.77443695
REMARK CNNscore 0.678380728
REMARK CNNaffinity 7.37806463
REMARK  13 active torsions:
REMARK  status: ('A' for Active; 'I' for Inactive)
REMARK    1  A    between atoms: C2_2  and  C3_3 
REMARK    2  A    between atoms: C3_3  and  C5_5 
REMARK    3  A    between atoms: C5_5  and  N1_6 
REMARK    4  A    between atoms: C5_5  and  C31_39 
REMARK       I    between atoms: N1_6  and  C6_7 
REMARK    5  A    between atoms: C6_7  and  C7_9 
REMARK    6  A    between atoms: C7_9  and  C8_10 
REMARK    7  A    between atoms: C8_10  and  C9_11 
REMARK    8  A    between atoms: C9_11  and  O3_13 
REMARK    9  A    between atoms: O3_13  and  C10_14 
REMARK   10  A    between atoms: C10_14  and  C11_15 
REMARK   11  A    between atoms: C11_15  and  C12_17 
REMARK   12  A    between atoms: C12_17  and  O5_18 
REMARK   13  A    between atoms: C31_39  and  O9_41 
ROOT
HETATM    1  C12 UNL     1      -6.703  49.535 -22.282  1.00  0.00     0.128 C 
HETATM    2  C13 UNL     1      -7.232  49.486 -20.832  1.00  0.00     0.047 C 
HETATM    3  C14 UNL     1      -6.069  49.946 -19.929  1.00  0.00     0.009 C 
HETATM    4  C15 UNL     1      -4.974  50.385 -20.897  1.00  0.00     0.002 C 
HETATM    5  C16 UNL     1      -3.525  50.438 -20.388  1.00  0.00     0.003 C 
HETATM    6  C17 UNL     1      -3.403  51.357 -19.165  1.00  0.00     0.010 C 
HETATM    7  C18 UNL     1      -1.961  51.443 -18.682  1.00  0.00     0.035 C 
HETATM    8  C19 UNL     1      -1.019  51.865 -19.785  1.00  0.00    -0.067 C 
HETATM    9  C20 UNL     1      -0.160  52.876 -19.566  1.00  0.00     0.053 C 
HETATM   10  C21 UNL     1       0.867  53.259 -20.561  1.00  0.00     0.149 C 
HETATM   11  O6  UNL     1       1.592  54.225 -20.340  1.00  0.00    -0.293 OA
HETATM   12  C22 UNL     1       1.029  52.386 -21.776  1.00  0.00     0.084 C 
HETATM   13  C23 UNL     1      -0.323  51.846 -22.221  1.00  0.00     0.022 C 
HETATM   14  C24 UNL     1      -1.095  51.076 -21.106  1.00  0.00    -0.009 C 
HETATM   15  C25 UNL     1      -0.428  49.702 -20.864  1.00  0.00     0.021 C 
HETATM   16  C26 UNL     1      -2.602  50.947 -21.535  1.00  0.00     0.072 C 
HETATM   17  C27 UNL     1      -2.863  50.132 -22.821  1.00  0.00     0.133 C 
HETATM   18  O7  UNL     1      -1.967  49.654 -23.514  1.00  0.00    -0.297 OA
HETATM   19  C28 UNL     1      -4.315  50.000 -23.265  1.00  0.00     0.091 C 
HETATM   20  C29 UNL     1      -5.160  49.441 -22.114  1.00  0.00     0.005 C 
HETATM   21  C30 UNL     1      -4.720  47.982 -21.829  1.00  0.00     0.019 C 
ENDROOT
BRANCH   1  22
HETATM   22  C11 UNL     1      -7.321  48.540 -23.281  1.00  0.00     0.185 C 
HETATM   23  O4  UNL     1      -8.003  47.600 -22.845  1.00  0.00    -0.292 OA
BRANCH  22  24
HETATM   24  C10 UNL     1      -7.041  48.709 -24.772  1.00  0.00     0.260 C 
BRANCH  24  25
HETATM   25  O3  UNL     1      -6.230  47.657 -25.296  1.00  0.00    -0.314 OA
BRANCH  25  26
HETATM   26  C9  UNL     1      -5.593  47.961 -26.459  1.00  0.00     0.259 C 
HETATM   27  O2  UNL     1      -6.119  47.957 -27.564  1.00  0.00    -0.265 OA
BRANCH  26  28
HETATM   28  C8  UNL     1      -4.151  48.279 -26.201  1.00  0.00     0.120 C 
BRANCH  28  29
HETATM   29  C7  UNL     1      -3.510  48.837 -27.460  1.00  0.00     0.112 C 
BRANCH  29  30
HETATM   30  C6  UNL     1      -2.833  50.162 -27.195  1.00  0.00     0.218 C 
HETATM   31  N1  UNL     1      -1.795  50.066 -26.298  1.00  0.00    -0.346 N 
HETATM   32  H11 UNL     1      -1.387  49.147 -26.140  1.00  0.00     0.163 HD
HETATM   33  O1  UNL     1      -3.187  51.218 -27.708  1.00  0.00    -0.274 OA
BRANCH  31  34
HETATM   34  C5  UNL     1      -0.900  51.200 -26.024  1.00  0.00     0.186 C 
BRANCH  34  35
HETATM   35  C3  UNL     1       0.246  51.283 -27.068  1.00  0.00     0.014 C 
HETATM   36  C4  UNL     1      -0.263  51.890 -28.385  1.00  0.00     0.012 C 
BRANCH  35  37
HETATM   37  C2  UNL     1       1.451  52.094 -26.530  1.00  0.00     0.002 C 
HETATM   38  C1  UNL     1       2.806  51.448 -26.788  1.00  0.00     0.005 C 
ENDBRANCH  35  37
ENDBRANCH  34  35
BRANCH  34  39
HETATM   39  C31 UNL     1      -1.763  52.477 -26.045  1.00  0.00     0.163 C 
HETATM   40  O8  UNL     1      -2.557  52.843 -25.194  1.00  0.00    -0.648 OA
BRANCH  39  41
HETATM   41  O9  UNL     1      -1.520  53.272 -27.116  1.00  0.00    -0.775 OA
HETATM   42  H43 UNL     1      -2.123  54.032 -26.982  1.00  0.00     0.167 HD
ENDBRANCH  39  41
ENDBRANCH  34  39
ENDBRANCH  31  34
ENDBRANCH  29  30
ENDBRANCH  28  29
ENDBRANCH  26  28
ENDBRANCH  25  26
ENDBRANCH  24  25
ENDBRANCH  22  24
ENDBRANCH   1  22
BRANCH   1  43
HETATM   43  O5  UNL     1      -7.044  50.840 -22.798  1.00  0.00    -0.381 OA
HETATM   44  H18 UNL     1      -6.990  50.776 -23.774  1.00  0.00     0.211 HD
ENDBRANCH   1  43
TORSDOF 13
ENDMDL
