MODEL 1
REMARK minimizedAffinity -5.94807863
REMARK CNNscore 0.398977727
REMARK CNNaffinity 5.95705843
REMARK  5 active torsions:
REMARK  status: ('A' for Active; 'I' for Inactive)
REMARK    1  A    between atoms: C2_2  and  C4_4 
REMARK    2  A    between atoms: C7_7  and  C8_8 
REMARK    3  A    between atoms: C8_8  and  O2_10 
REMARK    4  A    between atoms: C11_13  and  C12_14 
REMARK    5  A    between atoms: C12_14  and  O4_16 
ROOT
HETATM    1  C4  UNL     1       6.106  18.580  -1.321  1.00  0.00     0.019 C 
HETATM    2  C5  UNL     1       7.566  18.364  -1.807  1.00  0.00     0.011 C 
HETATM    3  C6  UNL     1       7.987  16.964  -1.327  1.00  0.00     0.021 C 
HETATM    4  C7  UNL     1       7.060  16.686  -0.138  1.00  0.00     0.050 C 
HETATM    5  C9  UNL     1       6.890  15.210   0.235  1.00  0.00     0.022 C 
HETATM    6  C10 UNL     1       5.727  15.024   1.237  1.00  0.00     0.023 C 
HETATM    7  C11 UNL     1       4.345  15.591   0.736  1.00  0.00     0.057 C 
HETATM    8  C13 UNL     1       4.575  17.101   0.329  1.00  0.00     0.011 C 
HETATM    9  C14 UNL     1       3.294  17.848  -0.057  1.00  0.00     0.007 C 
HETATM   10  C15 UNL     1       2.170  17.680   0.965  1.00  0.00     0.006 C 
HETATM   11  C16 UNL     1       1.882  16.204   1.317  1.00  0.00     0.003 C 
HETATM   12  C17 UNL     1       0.536  15.973   2.147  1.00  0.00    -0.035 C 
HETATM   13  C18 UNL     1       0.525  16.770   3.471  1.00  0.00     0.016 C 
HETATM   14  C19 UNL     1      -0.672  16.460   1.286  1.00  0.00     0.017 C 
HETATM   15  C20 UNL     1      -2.039  16.076   1.835  1.00  0.00     0.080 C 
HETATM   16  C21 UNL     1      -2.143  14.596   2.106  1.00  0.00     0.135 C 
HETATM   17  O5  UNL     1      -3.153  13.980   1.756  1.00  0.00    -0.297 OA
HETATM   18  C22 UNL     1      -1.015  13.935   2.916  1.00  0.00     0.017 C 
HETATM   19  C23 UNL     1      -1.240  14.236   4.405  1.00  0.00     0.023 C 
HETATM   20  C24 UNL     1      -1.147  12.401   2.738  1.00  0.00     0.023 C 
HETATM   21  C25 UNL     1       0.361  14.420   2.339  1.00  0.00     0.009 C 
HETATM   22  C26 UNL     1       1.591  13.806   3.036  1.00  0.00     0.007 C 
HETATM   23  C27 UNL     1       2.853  14.005   2.192  1.00  0.00     0.011 C 
HETATM   24  C28 UNL     1       3.185  15.488   1.860  1.00  0.00    -0.022 C 
HETATM   25  C29 UNL     1       3.686  16.134   3.185  1.00  0.00     0.017 C 
HETATM   26  C30 UNL     1       5.720  17.215  -0.707  1.00  0.00     0.018 C 
ENDROOT
BRANCH   4  27
HETATM   27  C8  UNL     1       7.619  17.454   1.071  1.00  0.00     0.149 C 
HETATM   28  O1  UNL     1       8.110  18.569   1.084  1.00  0.00    -0.649 OA
BRANCH  27  29
HETATM   29  O2  UNL     1       7.543  16.751   2.220  1.00  0.00    -0.776 OA
HETATM   30  H11 UNL     1       7.940  17.346   2.890  1.00  0.00     0.167 HD
ENDBRANCH  27  29
ENDBRANCH   4  27
BRANCH   1  31
HETATM   31  C2  UNL     1       5.214  19.110  -2.432  1.00  0.00    -0.088 C 
HETATM   32  C1  UNL     1       4.854  20.406  -2.465  1.00  0.00     0.014 C 
HETATM   33  C3  UNL     1       4.757  18.165  -3.511  1.00  0.00     0.043 C 
ENDBRANCH   1  31
BRANCH   7  34
HETATM   34  C12 UNL     1       3.978  14.688  -0.474  1.00  0.00     0.149 C 
HETATM   35  O3  UNL     1       3.189  14.966  -1.366  1.00  0.00    -0.649 OA
BRANCH  34  36
HETATM   36  O4  UNL     1       4.614  13.510  -0.538  1.00  0.00    -0.776 OA
HETATM   37  H16 UNL     1       4.271  13.100  -1.361  1.00  0.00     0.167 HD
ENDBRANCH  34  36
ENDBRANCH   7  34
TORSDOF 5
ENDMDL
