MODEL 1
REMARK minimizedAffinity -8.82084084
REMARK CNNscore 0.832717717
REMARK CNNaffinity 6.7961936
REMARK  4 active torsions:
REMARK  status: ('A' for Active; 'I' for Inactive)
REMARK    1  A    between atoms: C4_4  and  O1_5 
REMARK    2  A    between atoms: C5_6  and  O2_7 
REMARK    3  A    between atoms: C8_11  and  C9_12 
REMARK    4  A    between atoms: C22_26  and  C23_27 
ROOT
HETATM    1  C1  UNL     1      -5.151  42.067 -15.039  1.00  0.00     0.040 C 
HETATM    2  C2  UNL     1      -5.445  41.853 -16.517  1.00  0.00     0.123 C 
HETATM    3  C3  UNL     1      -4.192  41.401 -17.262  1.00  0.00     0.069 C 
HETATM    4  C4  UNL     1      -4.515  41.235 -18.740  1.00  0.00     0.188 C 
HETATM    5  C5  UNL     1      -5.119  42.520 -19.344  1.00  0.00     0.240 C 
HETATM    6  O3  UNL     1      -4.065  43.504 -19.431  1.00  0.00    -0.341 OA
HETATM    7  C6  UNL     1      -4.597  44.771 -19.867  1.00  0.00     0.156 C 
HETATM    8  C7  UNL     1      -3.445  45.779 -19.930  1.00  0.00     0.056 C 
HETATM    9  C8  UNL     1      -3.882  47.227 -20.281  1.00  0.00     0.043 C 
HETATM   10  C10 UNL     1      -5.116  47.629 -19.466  1.00  0.00    -0.065 C 
HETATM   11  C11 UNL     1      -5.230  48.822 -18.851  1.00  0.00    -0.022 C 
HETATM   12  C12 UNL     1      -4.193  49.904 -18.886  1.00  0.00     0.035 C 
HETATM   13  C13 UNL     1      -3.147  49.690 -19.980  1.00  0.00     0.030 C 
HETATM   14  C14 UNL     1      -2.675  48.204 -20.031  1.00  0.00     0.012 C 
HETATM   15  C15 UNL     1      -1.473  47.977 -21.010  1.00  0.00     0.007 C 
HETATM   16  C16 UNL     1      -0.335  49.026 -20.918  1.00  0.00     0.016 C 
HETATM   17  C17 UNL     1      -0.932  50.433 -20.994  1.00  0.00     0.023 C 
HETATM   18  C18 UNL     1      -1.420  50.732 -22.430  1.00  0.00     0.022 C 
HETATM   19  C19 UNL     1      -1.923  50.546 -19.772  1.00  0.00     0.077 C 
HETATM   20  C20 UNL     1      -1.168  50.496 -18.437  1.00  0.00     0.042 C 
HETATM   21  C21 UNL     1      -0.006  51.405 -18.818  1.00  0.00     0.047 C 
HETATM   22  C22 UNL     1      -0.470  51.751 -20.231  1.00  0.00     0.098 C 
HETATM   23  O7  UNL     1      -1.982  51.998 -20.093  1.00  0.00    -0.362 OA
HETATM   24  C27 UNL     1      -6.226  46.604 -19.362  1.00  0.00     0.069 C 
HETATM   25  C28 UNL     1      -5.688  45.251 -18.899  1.00  0.00     0.158 C 
HETATM   26  O8  UNL     1      -6.769  44.309 -18.849  1.00  0.00    -0.347 OA
HETATM   27  C29 UNL     1      -6.289  43.016 -18.429  1.00  0.00     0.325 C 
HETATM   28  O9  UNL     1      -5.913  43.093 -17.046  1.00  0.00    -0.351 OA
ENDROOT
BRANCH  22  29
HETATM   29  C23 UNL     1       0.294  52.766 -20.945  1.00  0.00    -0.015 A 
HETATM   30  C24 UNL     1       0.292  52.929 -22.264  1.00  0.00     0.090 A 
HETATM   31  C25 UNL     1       1.210  54.035 -22.533  1.00  0.00     0.283 A 
HETATM   32  O5  UNL     1       1.471  54.461 -23.641  1.00  0.00    -0.260 OA
HETATM   33  O6  UNL     1       1.721  54.496 -21.357  1.00  0.00    -0.314 OA
HETATM   34  C26 UNL     1       1.182  53.730 -20.277  1.00  0.00     0.216 A 
ENDBRANCH  22  29
BRANCH   9  35
HETATM   35  C9  UNL     1      -4.320  47.322 -21.750  1.00  0.00     0.245 C 
HETATM   36  O4  UNL     1      -4.216  48.329 -22.443  1.00  0.00    -0.306 OA
ENDBRANCH   9  35
BRANCH   5  37
HETATM   37  O2  UNL     1      -5.564  42.222 -20.668  1.00  0.00    -0.360 OA
HETATM   38  H9  UNL     1      -4.867  41.657 -21.051  1.00  0.00     0.213 HD
ENDBRANCH   5  37
BRANCH   4  39
HETATM   39  O1  UNL     1      -3.322  40.878 -19.457  1.00  0.00    -0.390 OA
HETATM   40  H8  UNL     1      -2.801  41.705 -19.527  1.00  0.00     0.210 HD
ENDBRANCH   4  39
TORSDOF 4
ENDMDL
