MODEL 1
REMARK minimizedAffinity -7.65337992
REMARK  6 active torsions:
REMARK  status: ('A' for Active; 'I' for Inactive)
REMARK    1  A    between atoms: O1_2  and  C2_3 
REMARK    2  A    between atoms: C7_8  and  C8_9 
REMARK    3  A    between atoms: C8_9  and  C9_10 
REMARK    4  A    between atoms: C9_10  and  O3_12 
REMARK    5  A    between atoms: C10_13  and  C11_14 
REMARK    6  A    between atoms: C10_13  and  C17_20 
ROOT
HETATM    1  C8  UNL     1      -3.321   4.429  12.005  1.00  0.00     0.062 C 
HETATM    2  C10 UNL     1      -2.417   5.350  12.438  1.00  0.00     0.002 C 
ENDROOT
BRANCH   1   3
HETATM    3  C7  UNL     1      -4.733   4.391  12.457  1.00  0.00     0.015 A 
HETATM    4  C2  UNL     1      -5.524   3.237  12.300  1.00  0.00     0.079 A 
HETATM    5  C3  UNL     1      -6.857   3.258  12.730  1.00  0.00     0.037 A 
HETATM    6  C4  UNL     1      -7.397   4.409  13.315  1.00  0.00     0.003 A 
HETATM    7  C5  UNL     1      -6.615   5.548  13.473  1.00  0.00     0.001 A 
HETATM    8  C6  UNL     1      -5.288   5.540  13.043  1.00  0.00     0.015 A 
BRANCH   4   9
HETATM    9  O1  UNL     1      -4.911   2.155  11.721  1.00  0.00    -0.355 OA
HETATM   10  C1  UNL     1      -5.747   1.115  11.223  1.00  0.00     0.210 C 
ENDBRANCH   4   9
ENDBRANCH   1   3
BRANCH   1  11
HETATM   11  C9  UNL     1      -2.945   3.435  10.974  1.00  0.00     0.178 C 
HETATM   12  O2  UNL     1      -2.222   2.471  11.147  1.00  0.00    -0.646 OA
BRANCH  11  13
HETATM   13  O3  UNL     1      -3.458   3.726   9.767  1.00  0.00    -0.773 OA
HETATM   14  H8  UNL     1      -3.135   2.999   9.197  1.00  0.00     0.167 HD
ENDBRANCH  11  13
ENDBRANCH   1  11
BRANCH   2  15
HETATM   15  C11 UNL     1      -1.053   5.396  11.849  1.00  0.00    -0.024 A 
HETATM   16  C12 UNL     1      -0.073   4.462  12.233  1.00  0.00     0.012 A 
HETATM   17  C13 UNL     1       1.202   4.507  11.664  1.00  0.00     0.001 A 
HETATM   18  C14 UNL     1       1.510   5.486  10.716  1.00  0.00     0.000 A 
HETATM   19  C15 UNL     1       0.542   6.421  10.333  1.00  0.00     0.001 A 
HETATM   20  C16 UNL     1      -0.737   6.375  10.893  1.00  0.00     0.012 A 
ENDBRANCH   2  15
BRANCH   2  21
HETATM   21  C17 UNL     1      -2.802   6.331  13.486  1.00  0.00    -0.024 A 
HETATM   22  C18 UNL     1      -2.772   5.960  14.842  1.00  0.00     0.012 A 
HETATM   23  C19 UNL     1      -3.125   6.884  15.828  1.00  0.00     0.001 A 
HETATM   24  C20 UNL     1      -3.522   8.174  15.470  1.00  0.00     0.000 A 
HETATM   25  C21 UNL     1      -3.578   8.541  14.125  1.00  0.00     0.001 A 
HETATM   26  C22 UNL     1      -3.219   7.625  13.135  1.00  0.00     0.012 A 
ENDBRANCH   2  21
TORSDOF 6
ENDMDL
