MODEL 1
REMARK minimizedAffinity -8.03312206
REMARK CNNscore 0.756208062
REMARK CNNaffinity 7.74430513
REMARK  14 active torsions:
REMARK  status: ('A' for Active; 'I' for Inactive)
REMARK    1  A    between atoms: O1_2  and  C2_3 
REMARK    2  A    between atoms: C2_3  and  C3_4 
REMARK    3  A    between atoms: C3_4  and  C4_5 
REMARK    4  A    between atoms: C4_5  and  O2_6 
REMARK    5  A    between atoms: O2_6  and  C5_7 
REMARK    6  A    between atoms: C18_21  and  C19_22 
REMARK    7  A    between atoms: C25_28  and  C26_29 
REMARK    8  A    between atoms: C26_29  and  O4_31 
REMARK    9  A    between atoms: C26_29  and  C28_32 
REMARK   10  A    between atoms: C28_32  and  O5_33 
REMARK   11  A    between atoms: C28_32  and  C29_34 
REMARK   12  A    between atoms: C33_39  and  C34_40 
REMARK       I    between atoms: C34_40  and  N1_42 
REMARK   13  A    between atoms: C37_46  and  O8_47 
REMARK   14  A    between atoms: C42_52  and  O9_53 
ROOT
HETATM    1  C5  UNL     1      -5.041  15.896  17.992  1.00  0.00     0.122 C 
HETATM    2  C6  UNL     1      -3.545  15.554  17.957  1.00  0.00     0.033 C 
HETATM    3  C7  UNL     1      -3.201  14.336  18.810  1.00  0.00     0.013 C 
HETATM    4  C8  UNL     1      -4.021  13.029  18.487  1.00  0.00    -0.026 C 
HETATM    5  C9  UNL     1      -4.467  12.465  19.866  1.00  0.00     0.016 C 
HETATM    6  C10 UNL     1      -5.285  13.374  17.653  1.00  0.00     0.071 C 
HETATM    7  C11 UNL     1      -5.939  14.665  18.180  1.00  0.00     0.045 C 
HETATM    8  C12 UNL     1      -5.030  13.544  16.158  1.00  0.00     0.154 C 
HETATM    9  O3  UNL     1      -5.805  14.151  15.424  1.00  0.00    -0.293 OA
HETATM   10  C13 UNL     1      -3.858  12.902  15.535  1.00  0.00     0.057 C 
HETATM   11  C14 UNL     1      -3.031  12.124  16.242  1.00  0.00    -0.037 C 
HETATM   12  C15 UNL     1      -3.099  11.972  17.760  1.00  0.00     0.026 C 
HETATM   13  C16 UNL     1      -3.332  10.475  18.092  1.00  0.00     0.011 C 
HETATM   14  C17 UNL     1      -2.266   9.557  17.447  1.00  0.00     0.014 C 
HETATM   15  C18 UNL     1      -2.205   9.699  15.901  1.00  0.00     0.005 C 
HETATM   16  C25 UNL     1      -0.860   9.175  15.234  1.00  0.00     0.034 C 
HETATM   17  C40 UNL     1      -0.766  10.013  13.923  1.00  0.00     0.012 C 
HETATM   18  C41 UNL     1      -1.622  11.280  14.127  1.00  0.00     0.044 C 
HETATM   19  C42 UNL     1      -1.973  11.252  15.613  1.00  0.00     0.090 C 
ENDROOT
BRANCH  16  20
HETATM   20  C26 UNL     1      -0.358   7.700  15.147  1.00  0.00     0.087 C 
HETATM   21  C27 UNL     1      -0.947   7.028  13.880  1.00  0.00     0.049 C 
BRANCH  20  22
HETATM   22  O4  UNL     1      -1.003   6.979  16.244  1.00  0.00    -0.387 OA
HETATM   23  H42 UNL     1      -1.955   7.176  16.211  1.00  0.00     0.210 HD
ENDBRANCH  20  22
BRANCH  20  24
HETATM   24  C28 UNL     1       1.160   7.303  15.252  1.00  0.00     0.181 C 
BRANCH  24  25
HETATM   25  O5  UNL     1       1.355   6.910  16.634  1.00  0.00    -0.390 OA
HETATM   26  H44 UNL     1       0.906   7.631  17.130  1.00  0.00     0.210 HD
ENDBRANCH  24  25
BRANCH  24  27
HETATM   27  C29 UNL     1       2.257   8.346  14.931  1.00  0.00     0.158 C 
HETATM   28  O6  UNL     1       3.434   8.124  15.754  1.00  0.00    -0.373 OA
HETATM   29  C30 UNL     1       4.592   8.246  14.920  1.00  0.00     0.185 C 
HETATM   30  C31 UNL     1       4.122   7.715  13.589  1.00  0.00     0.028 C 
HETATM   31  C37 UNL     1       5.802   7.434  15.412  1.00  0.00     0.384 C 
HETATM   32  C32 UNL     1       5.185   7.973  12.535  1.00  0.00     0.053 C 
HETATM   33  C38 UNL     1       2.779   8.412  13.466  1.00  0.00     0.020 C 
HETATM   34  C33 UNL     1       6.603   7.621  13.058  1.00  0.00     0.309 C 
HETATM   35  N2  UNL     1       6.638   6.876  14.347  1.00  0.00     0.128 N 
HETATM   36  H55 UNL     1       6.277   5.938  14.155  1.00  0.00     0.320 HD
HETATM   37  C39 UNL     1       1.904   7.863  12.352  1.00  0.00     0.013 C 
BRANCH  34  38
HETATM   38  C34 UNL     1       7.549   8.846  13.007  1.00  0.00     0.233 C 
HETATM   39  O7  UNL     1       7.535   9.632  12.059  1.00  0.00    -0.277 OA
HETATM   40  N1  UNL     1       8.468   8.922  14.055  1.00  0.00    -0.249 NA
HETATM   41  C35 UNL     1       9.863   9.117  13.803  1.00  0.00     0.113 A 
HETATM   42  C36 UNL     1       9.041  10.188  14.421  1.00  0.00     0.113 A 
ENDBRANCH  34  38
BRANCH  31  43
HETATM   43  O8  UNL     1       6.634   8.242  16.221  1.00  0.00    -0.366 OA
HETATM   44  H57 UNL     1       7.500   8.148  15.787  1.00  0.00     0.212 HD
ENDBRANCH  31  43
ENDBRANCH  24  27
ENDBRANCH  20  24
ENDBRANCH  16  20
BRANCH  15  45
HETATM   45  C19 UNL     1      -3.470   9.004  15.188  1.00  0.00    -0.002 C 
HETATM   46  C20 UNL     1      -4.846   9.538  15.654  1.00  0.00     0.005 C 
HETATM   47  C21 UNL     1      -6.015   8.632  15.246  1.00  0.00     0.000 C 
HETATM   48  C22 UNL     1      -5.710   7.741  14.051  1.00  0.00     0.000 C 
HETATM   49  C23 UNL     1      -4.837   8.465  13.042  1.00  0.00     0.000 C 
HETATM   50  C24 UNL     1      -3.513   8.967  13.641  1.00  0.00     0.005 C 
ENDBRANCH  15  45
BRANCH  19  51
HETATM   51  O9  UNL     1      -0.761  11.702  16.265  1.00  0.00    -0.384 OA
HETATM   52  H66 UNL     1      -0.617  12.628  16.011  1.00  0.00     0.211 HD
ENDBRANCH  19  51
BRANCH   1  53
HETATM   53  O2  UNL     1      -5.302  16.790  19.080  1.00  0.00    -0.386 OA
BRANCH  53  54
HETATM   54  C4  UNL     1      -6.101  16.185  20.100  1.00  0.00     0.170 C 
BRANCH  54  55
HETATM   55  C3  UNL     1      -5.365  16.214  21.433  1.00  0.00     0.052 C 
BRANCH  55  56
HETATM   56  C2  UNL     1      -6.295  15.985  22.620  1.00  0.00     0.169 C 
BRANCH  56  57
HETATM   57  O1  UNL     1      -7.662  16.002  22.186  1.00  0.00    -0.396 OA
HETATM   58  C1  UNL     1      -8.470  16.894  22.948  1.00  0.00     0.201 C 
ENDBRANCH  56  57
ENDBRANCH  55  56
ENDBRANCH  54  55
ENDBRANCH  53  54
ENDBRANCH   1  53
TORSDOF 14
ENDMDL
