MODEL 1
REMARK minimizedAffinity -7.95418882
REMARK CNNscore 0.390855074
REMARK CNNaffinity 6.32444906
REMARK  14 active torsions:
REMARK  status: ('A' for Active; 'I' for Inactive)
REMARK    1  A    between atoms: C19_21  and  O3_22 
REMARK    2  A    between atoms: C19_21  and  C20_23 
REMARK    3  A    between atoms: C20_23  and  C21_25 
REMARK    4  A    between atoms: C21_25  and  O5_26 
REMARK    5  A    between atoms: O5_26  and  C22_27 
REMARK    6  A    between atoms: C22_27  and  C23_29 
REMARK    7  A    between atoms: C23_29  and  C24_30 
REMARK    8  A    between atoms: C24_30  and  C25_31 
REMARK       I    between atoms: C25_31  and  N1_33 
REMARK    9  A    between atoms: N1_33  and  C26_34 
REMARK   10  A    between atoms: C26_34  and  C27_35 
REMARK   11  A    between atoms: C26_34  and  C30_40 
REMARK   12  A    between atoms: C27_35  and  C28_36 
REMARK   13  A    between atoms: C28_36  and  C29_37 
REMARK       I    between atoms: C29_37  and  N2_38 
REMARK   14  A    between atoms: C30_40  and  O10_42 
ROOT
HETATM    1  C20 UNL     1      -2.266  49.690 -18.414  1.00  0.00     0.185 C 
HETATM    2  O4  UNL     1      -2.198  48.541 -18.862  1.00  0.00    -0.292 OA
ENDROOT
BRANCH   1   3
HETATM    3  C19 UNL     1      -1.885  50.930 -19.275  1.00  0.00     0.128 C 
HETATM    4  C14 UNL     1      -1.730  50.630 -20.801  1.00  0.00     0.005 C 
HETATM    5  C13 UNL     1      -3.015  50.670 -21.635  1.00  0.00     0.091 C 
HETATM    6  C15 UNL     1      -1.023  49.267 -21.036  1.00  0.00     0.019 C 
HETATM    7  C16 UNL     1      -0.868  51.845 -21.234  1.00  0.00     0.002 C 
HETATM    8  C12 UNL     1      -2.670  50.659 -23.120  1.00  0.00     0.133 C 
HETATM    9  C11 UNL     1      -1.700  51.752 -23.614  1.00  0.00     0.072 C 
HETATM   10  O2  UNL     1      -3.215  49.846 -23.864  1.00  0.00    -0.297 OA
HETATM   11  C2  UNL     1      -1.355  51.715 -25.148  1.00  0.00    -0.009 C 
HETATM   12  C10 UNL     1      -0.435  51.792 -22.706  1.00  0.00     0.003 C 
HETATM   13  C1  UNL     1      -0.714  50.376 -25.577  1.00  0.00     0.021 C 
HETATM   14  C3  UNL     1      -2.661  51.955 -25.965  1.00  0.00     0.022 C 
HETATM   15  C7  UNL     1      -0.344  52.835 -25.460  1.00  0.00    -0.067 C 
HETATM   16  C4  UNL     1      -2.419  52.319 -27.424  1.00  0.00     0.084 C 
HETATM   17  C5  UNL     1      -1.524  53.524 -27.518  1.00  0.00     0.149 C 
HETATM   18  O1  UNL     1      -1.607  54.338 -28.434  1.00  0.00    -0.293 OA
HETATM   19  C6  UNL     1      -0.453  53.673 -26.507  1.00  0.00     0.053 C 
HETATM   20  C8  UNL     1       0.849  52.957 -24.539  1.00  0.00     0.035 C 
HETATM   21  C9  UNL     1       0.435  53.002 -23.074  1.00  0.00     0.010 C 
HETATM   22  C17 UNL     1       0.223  51.906 -20.173  1.00  0.00     0.009 C 
HETATM   23  C18 UNL     1      -0.472  51.453 -18.876  1.00  0.00     0.047 C 
BRANCH   3  24
HETATM   24  O3  UNL     1      -2.763  52.045 -19.095  1.00  0.00    -0.381 OA
HETATM   25  H25 UNL     1      -3.683  51.741 -19.182  1.00  0.00     0.211 HD
ENDBRANCH   3  24
ENDBRANCH   1   3
BRANCH   1  26
HETATM   26  C21 UNL     1      -2.895  49.935 -17.040  1.00  0.00     0.260 C 
BRANCH  26  27
HETATM   27  O5  UNL     1      -2.569  51.177 -16.420  1.00  0.00    -0.314 OA
BRANCH  27  28
HETATM   28  C22 UNL     1      -2.035  51.047 -15.171  1.00  0.00     0.259 C 
HETATM   29  O6  UNL     1      -0.837  51.061 -14.929  1.00  0.00    -0.265 OA
BRANCH  28  30
HETATM   30  C23 UNL     1      -3.100  51.007 -14.098  1.00  0.00     0.120 C 
BRANCH  30  31
HETATM   31  C24 UNL     1      -2.580  50.769 -12.686  1.00  0.00     0.112 C 
BRANCH  31  32
HETATM   32  C25 UNL     1      -2.498  52.050 -11.881  1.00  0.00     0.218 C 
HETATM   33  O7  UNL     1      -3.477  52.726 -11.588  1.00  0.00    -0.274 OA
HETATM   34  N1  UNL     1      -1.205  52.393 -11.541  1.00  0.00    -0.347 N 
HETATM   35  H32 UNL     1      -0.550  51.622 -11.489  1.00  0.00     0.163 HD
BRANCH  34  36
HETATM   36  C26 UNL     1      -0.971  53.494 -10.599  1.00  0.00     0.182 C 
BRANCH  36  37
HETATM   37  C27 UNL     1       0.401  54.143 -10.805  1.00  0.00     0.045 C 
BRANCH  37  38
HETATM   38  C28 UNL     1       0.794  55.156  -9.724  1.00  0.00     0.105 C 
BRANCH  38  39
HETATM   39  C29 UNL     1       2.232  55.608  -9.876  1.00  0.00     0.215 C 
HETATM   40  N2  UNL     1       2.694  55.570 -11.160  1.00  0.00    -0.370 N 
HETATM   41  H38 UNL     1       3.674  55.789 -11.296  1.00  0.00     0.159 HD
HETATM   42  H39 UNL     1       2.218  55.062 -11.893  1.00  0.00     0.159 HD
HETATM   43  O8  UNL     1       2.946  55.988  -8.958  1.00  0.00    -0.274 OA
ENDBRANCH  38  39
ENDBRANCH  37  38
ENDBRANCH  36  37
BRANCH  36  44
HETATM   44  C30 UNL     1      -1.119  52.961  -9.174  1.00  0.00     0.163 C 
HETATM   45  O9  UNL     1      -0.215  52.520  -8.477  1.00  0.00    -0.648 OA
BRANCH  44  46
HETATM   46  O10 UNL     1      -2.372  53.070  -8.691  1.00  0.00    -0.775 OA
HETATM   47  H40 UNL     1      -2.333  52.675  -7.795  1.00  0.00     0.167 HD
ENDBRANCH  44  46
ENDBRANCH  36  44
ENDBRANCH  34  36
ENDBRANCH  31  32
ENDBRANCH  30  31
ENDBRANCH  28  30
ENDBRANCH  27  28
ENDBRANCH  26  27
ENDBRANCH   1  26
TORSDOF 14
ENDMDL
