MODEL 1
REMARK minimizedAffinity -8.81296921
REMARK CNNscore 0.619058967
REMARK CNNaffinity 7.68815851
REMARK  10 active torsions:
REMARK  status: ('A' for Active; 'I' for Inactive)
REMARK    1  A    between atoms: C2_2  and  O2_4 
REMARK    2  A    between atoms: O2_4  and  C3_5 
REMARK    3  A    between atoms: C3_5  and  C4_6 
REMARK    4  A    between atoms: C4_6  and  N1_7 
REMARK       I    between atoms: N1_7  and  C6_9 
REMARK    5  A    between atoms: C6_9  and  C7_11 
REMARK    6  A    between atoms: C19_24  and  O5_25 
REMARK    7  A    between atoms: O5_25  and  C20_26 
REMARK    8  A    between atoms: C20_26  and  C21_28 
REMARK    9  A    between atoms: C21_28  and  C22_29 
REMARK   10  A    between atoms: C22_29  and  O7_32 
ROOT
HETATM    1  C7  UNL     1      -6.665   8.225  15.493  1.00  0.00     0.077 C 
HETATM    2  C8  UNL     1      -5.455   8.207  14.891  1.00  0.00    -0.070 C 
HETATM    3  C9  UNL     1      -5.225   7.774  13.466  1.00  0.00     0.035 C 
HETATM    4  C10 UNL     1      -3.754   7.548  13.096  1.00  0.00     0.010 C 
HETATM    5  C11 UNL     1      -2.959   6.825  14.205  1.00  0.00     0.006 C 
HETATM    6  C12 UNL     1      -3.115   7.541  15.579  1.00  0.00     0.068 C 
HETATM    7  C13 UNL     1      -1.858   8.077  16.242  1.00  0.00     0.132 C 
HETATM    8  O4  UNL     1      -1.892   8.427  17.428  1.00  0.00    -0.298 OA
HETATM    9  C14 UNL     1      -0.558   8.190  15.487  1.00  0.00     0.085 C 
HETATM   10  C15 UNL     1      -0.588   7.743  14.020  1.00  0.00     0.011 C 
HETATM   11  C16 UNL     1       0.851   7.731  13.352  1.00  0.00    -0.016 C 
HETATM   12  C17 UNL     1       1.932   6.996  14.179  1.00  0.00     0.018 C 
HETATM   13  C18 UNL     1       1.352   9.196  13.221  1.00  0.00     0.018 C 
HETATM   14  C19 UNL     1       0.771   7.138  11.909  1.00  0.00     0.140 C 
HETATM   15  C25 UNL     1       0.071   5.779  11.892  1.00  0.00     0.034 C 
HETATM   16  C26 UNL     1      -1.358   5.931  12.390  1.00  0.00     0.012 C 
HETATM   17  C27 UNL     1      -1.461   6.458  13.845  1.00  0.00    -0.035 C 
HETATM   18  C28 UNL     1      -1.039   5.297  14.789  1.00  0.00     0.016 C 
HETATM   19  C29 UNL     1      -4.221   8.627  15.662  1.00  0.00     0.022 C 
HETATM   20  C30 UNL     1      -3.779  10.041  15.241  1.00  0.00     0.015 C 
ENDROOT
BRANCH   1  21
HETATM   21  C6  UNL     1      -7.972   7.901  14.836  1.00  0.00     0.243 C 
HETATM   22  N1  UNL     1      -8.150   6.601  14.369  1.00  0.00    -0.351 N 
HETATM   23  C5  UNL     1      -9.450   6.258  13.806  1.00  0.00     0.153 C 
HETATM   24  O3  UNL     1      -8.843   8.766  14.728  1.00  0.00    -0.268 OA
BRANCH  22  25
HETATM   25  C4  UNL     1      -7.167   5.509  14.441  1.00  0.00     0.152 C 
BRANCH  25  26
HETATM   26  C3  UNL     1      -7.670   4.179  13.865  1.00  0.00     0.198 C 
BRANCH  26  27
HETATM   27  O2  UNL     1      -7.179   4.010  12.524  1.00  0.00    -0.320 OA
BRANCH  27  28
HETATM   28  C2  UNL     1      -5.837   3.814  12.401  1.00  0.00     0.254 C 
HETATM   29  C1  UNL     1      -5.533   3.205  11.065  1.00  0.00     0.126 C 
HETATM   30  O1  UNL     1      -4.990   4.105  13.233  1.00  0.00    -0.266 OA
ENDBRANCH  27  28
ENDBRANCH  26  27
ENDBRANCH  25  26
ENDBRANCH  22  25
ENDBRANCH   1  21
BRANCH  14  31
HETATM   31  O5  UNL     1       2.100   7.004  11.362  1.00  0.00    -0.315 OA
BRANCH  31  32
HETATM   32  C20 UNL     1       2.189   6.483  10.109  1.00  0.00     0.262 C 
HETATM   33  O6  UNL     1       1.725   5.409   9.754  1.00  0.00    -0.265 OA
BRANCH  32  34
HETATM   34  C21 UNL     1       2.961   7.407   9.208  1.00  0.00     0.148 C 
BRANCH  34  35
HETATM   35  C22 UNL     1       2.140   7.953   8.037  1.00  0.00     0.059 C 
HETATM   36  C23 UNL     1       0.785   8.505   8.486  1.00  0.00     0.045 C 
HETATM   37  C24 UNL     1       1.943   6.920   6.925  1.00  0.00     0.045 C 
BRANCH  35  38
HETATM   38  O7  UNL     1       2.865   9.061   7.478  1.00  0.00    -0.390 OA
HETATM   39  H36 UNL     1       3.706   8.732   7.113  1.00  0.00     0.210 HD
ENDBRANCH  35  38
ENDBRANCH  34  35
ENDBRANCH  32  34
ENDBRANCH  31  32
ENDBRANCH  14  31
TORSDOF 10
ENDMDL
