MODEL 1
REMARK minimizedAffinity -11.4932432
REMARK  5 active torsions:
REMARK  status: ('A' for Active; 'I' for Inactive)
REMARK    1  A    between atoms: N1_2  and  C2_3 
REMARK    2  A    between atoms: C4_5  and  N4_34 
REMARK    3  A    between atoms: C5_7  and  N2_12 
REMARK    4  A    between atoms: C7_9  and  O2_10 
REMARK    5  A    between atoms: C27_35  and  C28_36 
ROOT
HETATM    1  C2  UNL     1      -5.719  48.068 -22.098  1.00  0.00     0.257 C 
HETATM    2  C3  UNL     1      -4.552  47.817 -23.047  1.00  0.00     0.092 C 
HETATM    3  C4  UNL     1      -3.373  48.760 -22.796  1.00  0.00     0.234 C 
HETATM    4  O1  UNL     1      -3.508  49.608 -21.663  1.00  0.00    -0.333 OA
HETATM    5  C5  UNL     1      -4.756  50.318 -21.465  1.00  0.00     0.168 C 
HETATM    6  C6  UNL     1      -4.793  50.363 -19.922  1.00  0.00     0.074 C 
HETATM    7  C7  UNL     1      -5.995  49.587 -22.073  1.00  0.00     0.209 C 
ENDROOT
BRANCH   1   8
HETATM    8  N1  UNL     1      -6.923  47.326 -22.533  1.00  0.00     0.086 N 
HETATM    9  C1  UNL     1      -6.988  47.146 -23.979  1.00  0.00     0.307 C 
HETATM   10  H4  UNL     1      -6.880  46.398 -22.098  1.00  0.00     0.316 HD
ENDBRANCH   1   8
BRANCH   7  11
HETATM   11  O2  UNL     1      -7.191  49.838 -21.307  1.00  0.00    -0.384 OA
HETATM   12  C8  UNL     1      -7.358  48.909 -20.238  1.00  0.00     0.202 C 
ENDBRANCH   7  11
BRANCH   3  13
HETATM   13  N4  UNL     1      -2.966  49.535 -23.965  1.00  0.00    -0.316 N 
HETATM   14  C26 UNL     1      -3.406  49.299 -25.258  1.00  0.00     0.048 A 
HETATM   15  C21 UNL     1      -2.707  50.175 -26.104  1.00  0.00     0.004 A 
HETATM   16  C25 UNL     1      -4.352  48.383 -25.753  1.00  0.00     0.030 A 
HETATM   17  C20 UNL     1      -1.835  50.955 -25.286  1.00  0.00     0.022 A 
HETATM   18  C22 UNL     1      -2.977  50.118 -27.488  1.00  0.00     0.014 A 
HETATM   19  C19 UNL     1      -0.877  51.965 -25.429  1.00  0.00     0.062 A 
HETATM   20  C27 UNL     1      -2.052  50.542 -23.980  1.00  0.00     0.077 A 
HETATM   21  C16 UNL     1      -0.177  52.553 -24.350  1.00  0.00     0.062 A 
HETATM   22  C18 UNL     1      -0.409  52.620 -26.651  1.00  0.00     0.260 A 
HETATM   23  C15 UNL     1      -0.365  52.204 -23.004  1.00  0.00     0.022 A 
HETATM   24  C17 UNL     1       0.711  53.566 -24.924  1.00  0.00     0.260 A 
HETATM   25  C14 UNL     1       0.099  52.603 -21.719  1.00  0.00     0.004 A 
HETATM   26  C28 UNL     1      -1.287  51.196 -22.783  1.00  0.00     0.078 A 
HETATM   27  C9  UNL     1      -0.593  51.841 -20.756  1.00  0.00     0.049 A 
HETATM   28  C13 UNL     1       1.019  53.581 -21.277  1.00  0.00     0.014 A 
HETATM   29  N2  UNL     1      -1.391  50.926 -21.440  1.00  0.00    -0.308 N 
HETATM   30  C10 UNL     1      -0.409  52.097 -19.381  1.00  0.00     0.030 A 
HETATM   31  C11 UNL     1       0.504  53.076 -18.979  1.00  0.00     0.002 A 
HETATM   32  C12 UNL     1       1.220  53.804 -19.914  1.00  0.00     0.001 A 
HETATM   33  O3  UNL     1       1.475  54.302 -24.333  1.00  0.00    -0.267 OA
HETATM   34  N3  UNL     1       0.519  53.537 -26.269  1.00  0.00    -0.289 N 
HETATM   35  H20 UNL     1       1.005  54.138 -26.913  1.00  0.00     0.172 HD
HETATM   36  O4  UNL     1      -0.769  52.402 -27.790  1.00  0.00    -0.267 OA
HETATM   37  C23 UNL     1      -3.918  49.211 -27.987  1.00  0.00     0.001 A 
HETATM   38  C24 UNL     1      -4.595  48.356 -27.128  1.00  0.00     0.002 A 
ENDBRANCH   3  13
TORSDOF 5
ENDMDL
