MODEL 1
REMARK minimizedAffinity -8.57992172
REMARK CNNscore 0.653920114
REMARK CNNaffinity 7.49228811
REMARK  18 active torsions:
REMARK  status: ('A' for Active; 'I' for Inactive)
REMARK    1  A    between atoms: C19_20  and  O2_21 
REMARK    2  A    between atoms: C19_20  and  C20_22 
REMARK    3  A    between atoms: C20_22  and  C21_24 
REMARK    4  A    between atoms: C21_24  and  O4_25 
REMARK    5  A    between atoms: O4_25  and  C22_26 
REMARK    6  A    between atoms: C22_26  and  C23_28 
REMARK    7  A    between atoms: C23_28  and  C24_29 
REMARK    8  A    between atoms: C24_29  and  C25_30 
REMARK       I    between atoms: C25_30  and  N1_32 
REMARK    9  A    between atoms: N1_32  and  C26_33 
REMARK   10  A    between atoms: C26_33  and  C27_34 
REMARK   11  A    between atoms: C27_34  and  C28_35 
REMARK   12  A    between atoms: C28_35  and  C29_36 
REMARK   13  A    between atoms: C29_36  and  C30_37 
REMARK   14  A    between atoms: C30_37  and  C31_38 
REMARK       I    between atoms: C31_38  and  N2_40 
REMARK   15  A    between atoms: N2_40  and  C32_41 
REMARK   16  A    between atoms: C32_41  and  C33_42 
REMARK   17  A    between atoms: C36_45  and  C37_46 
REMARK   18  A    between atoms: C37_46  and  O9_48 
ROOT
HETATM    1  C22 UNL     1      -4.544   4.805  13.082  1.00  0.00     0.259 C 
HETATM    2  O5  UNL     1      -5.234   5.786  13.329  1.00  0.00    -0.265 OA
ENDROOT
BRANCH   1   3
HETATM    3  O4  UNL     1      -3.188   4.771  13.192  1.00  0.00    -0.314 OA
BRANCH   3   4
HETATM    4  C21 UNL     1      -2.693   5.116  14.492  1.00  0.00     0.260 C 
BRANCH   4   5
HETATM    5  C20 UNL     1      -2.429   6.617  14.638  1.00  0.00     0.185 C 
HETATM    6  O3  UNL     1      -2.733   7.222  15.668  1.00  0.00    -0.292 OA
BRANCH   5   7
HETATM    7  C19 UNL     1      -1.830   7.340  13.409  1.00  0.00     0.128 C 
HETATM    8  C14 UNL     1      -0.309   7.056  13.103  1.00  0.00    -0.002 C 
HETATM    9  C13 UNL     1      -0.092   5.915  12.100  1.00  0.00     0.013 C 
HETATM   10  C15 UNL     1       0.473   6.746  14.402  1.00  0.00     0.019 C 
HETATM   11  C16 UNL     1       0.230   8.414  12.530  1.00  0.00     0.002 C 
HETATM   12  C12 UNL     1       1.327   5.806  11.535  1.00  0.00     0.007 C 
HETATM   13  C11 UNL     1       2.105   7.134  11.376  1.00  0.00     0.002 C 
HETATM   14  C2  UNL     1       3.148   7.105  10.198  1.00  0.00    -0.016 C 
HETATM   15  C10 UNL     1       1.134   8.343  11.274  1.00  0.00    -0.004 C 
HETATM   16  C1  UNL     1       4.067   8.359  10.295  1.00  0.00     0.020 C 
HETATM   17  C3  UNL     1       4.123   5.891  10.287  1.00  0.00     0.022 C 
HETATM   18  C7  UNL     1       2.378   7.149   8.881  1.00  0.00    -0.068 C 
HETATM   19  C4  UNL     1       3.724   4.643   9.515  1.00  0.00     0.084 C 
HETATM   20  C5  UNL     1       3.276   4.985   8.117  1.00  0.00     0.149 C 
HETATM   21  O1  UNL     1       3.476   4.239   7.161  1.00  0.00    -0.293 OA
HETATM   22  C6  UNL     1       2.473   6.211   7.923  1.00  0.00     0.053 C 
HETATM   23  C8  UNL     1       1.411   8.302   8.728  1.00  0.00     0.035 C 
HETATM   24  C9  UNL     1       0.427   8.380   9.904  1.00  0.00     0.010 C 
HETATM   25  C17 UNL     1      -0.977   9.351  12.442  1.00  0.00     0.009 C 
HETATM   26  C18 UNL     1      -1.876   8.869  13.571  1.00  0.00     0.047 C 
BRANCH   7  27
HETATM   27  O2  UNL     1      -2.643   7.013  12.272  1.00  0.00    -0.381 OA
HETATM   28  H27 UNL     1      -3.480   7.507  12.339  1.00  0.00     0.211 HD
ENDBRANCH   7  27
ENDBRANCH   5   7
ENDBRANCH   4   5
ENDBRANCH   3   4
ENDBRANCH   1   3
BRANCH   1  29
HETATM   29  C23 UNL     1      -5.115   3.462  12.716  1.00  0.00     0.120 C 
BRANCH  29  30
HETATM   30  C24 UNL     1      -6.336   3.548  11.807  1.00  0.00     0.112 C 
BRANCH  30  31
HETATM   31  C25 UNL     1      -7.576   3.925  12.595  1.00  0.00     0.217 C 
HETATM   32  O6  UNL     1      -8.166   3.145  13.337  1.00  0.00    -0.274 OA
HETATM   33  N1  UNL     1      -7.965   5.233  12.409  1.00  0.00    -0.361 N 
HETATM   34  H34 UNL     1      -7.367   5.856  11.880  1.00  0.00     0.162 HD
BRANCH  33  35
HETATM   35  C26 UNL     1      -9.068   5.811  13.151  1.00  0.00     0.122 C 
BRANCH  35  36
HETATM   36  C27 UNL     1      -8.645   6.526  14.438  1.00  0.00     0.020 C 
BRANCH  36  37
HETATM   37  C28 UNL     1      -9.589   7.648  14.890  1.00  0.00     0.002 C 
BRANCH  37  38
HETATM   38  C29 UNL     1     -11.046   7.458  14.463  1.00  0.00     0.009 C 
BRANCH  38  39
HETATM   39  C30 UNL     1     -11.458   8.412  13.341  1.00  0.00     0.103 C 
BRANCH  39  40
HETATM   40  C31 UNL     1     -12.912   8.268  12.923  1.00  0.00     0.217 C 
HETATM   41  O7  UNL     1     -13.519   9.097  12.251  1.00  0.00    -0.274 OA
HETATM   42  N2  UNL     1     -13.478   7.095  13.383  1.00  0.00    -0.357 N 
HETATM   43  H45 UNL     1     -12.874   6.382  13.769  1.00  0.00     0.162 HD
BRANCH  42  44
HETATM   44  C32 UNL     1     -14.830   6.721  13.041  1.00  0.00     0.161 C 
BRANCH  44  45
HETATM   45  C33 UNL     1     -15.584   6.227  14.247  1.00  0.00    -0.040 A 
HETATM   46  C34 UNL     1     -15.764   4.854  14.473  1.00  0.00     0.010 A 
HETATM   47  C35 UNL     1     -16.478   4.410  15.591  1.00  0.00     0.019 A 
HETATM   48  C36 UNL     1     -17.024   5.331  16.493  1.00  0.00     0.037 A 
HETATM   49  C38 UNL     1     -16.856   6.701  16.267  1.00  0.00     0.019 A 
HETATM   50  C39 UNL     1     -16.147   7.143  15.147  1.00  0.00     0.010 A 
BRANCH  48  51
HETATM   51  C37 UNL     1     -17.769   4.812  17.666  1.00  0.00     0.176 C 
HETATM   52  O8  UNL     1     -18.883   4.323  17.643  1.00  0.00    -0.646 OA
BRANCH  51  53
HETATM   53  O9  UNL     1     -17.077   4.922  18.815  1.00  0.00    -0.773 OA
HETATM   54  H50 UNL     1     -17.675   4.531  19.488  1.00  0.00     0.167 HD
ENDBRANCH  51  53
ENDBRANCH  48  51
ENDBRANCH  44  45
ENDBRANCH  42  44
ENDBRANCH  39  40
ENDBRANCH  38  39
ENDBRANCH  37  38
ENDBRANCH  36  37
ENDBRANCH  35  36
ENDBRANCH  33  35
ENDBRANCH  30  31
ENDBRANCH  29  30
ENDBRANCH   1  29
TORSDOF 18
ENDMDL
