MODEL 1
REMARK minimizedAffinity -10.0069075
REMARK  1 active torsions:
REMARK  status: ('A' for Active; 'I' for Inactive)
REMARK    1  A    between atoms: C2_2  and  N1_3 
ROOT
HETATM    1  N1  UNL     1      10.542  -5.701  31.175  1.00  0.00    -0.317 N 
HETATM    2  C3  UNL     1      10.839  -4.612  31.999  1.00  0.00     0.237 A 
HETATM    3  O1  UNL     1      11.933  -4.324  32.463  1.00  0.00    -0.272 OA
HETATM    4  C4  UNL     1       9.526  -3.829  32.220  1.00  0.00     0.063 A 
HETATM    5  C5  UNL     1       9.153  -3.863  33.702  1.00  0.00     0.030 C 
HETATM    6  C6  UNL     1       9.691  -2.397  31.714  1.00  0.00     0.030 C 
HETATM    7  C7  UNL     1       8.544  -4.615  31.379  1.00  0.00    -0.012 A 
HETATM    8  C8  UNL     1       7.191  -4.373  31.166  1.00  0.00     0.041 A 
HETATM    9  C9  UNL     1       6.533  -5.278  30.321  1.00  0.00     0.044 A 
HETATM   10  C10 UNL     1       7.162  -6.366  29.711  1.00  0.00     0.001 A 
HETATM   11  C11 UNL     1       8.538  -6.587  29.951  1.00  0.00     0.044 A 
HETATM   12  C12 UNL     1       9.196  -5.697  30.788  1.00  0.00     0.045 A 
HETATM   13  C13 UNL     1       6.171  -7.049  28.925  1.00  0.00    -0.017 A 
HETATM   14  C14 UNL     1       4.973  -6.371  29.093  1.00  0.00     0.069 A 
HETATM   15  N2  UNL     1       5.217  -5.307  29.925  1.00  0.00    -0.353 N 
HETATM   16  C15 UNL     1       3.689  -6.659  28.526  1.00  0.00     0.083 A 
HETATM   17  C16 UNL     1       3.312  -7.655  27.640  1.00  0.00    -0.004 A 
HETATM   18  C17 UNL     1       4.146  -8.730  27.030  1.00  0.00     0.043 C 
HETATM   19  C18 UNL     1       5.614  -8.362  26.808  1.00  0.00     0.009 C 
HETATM   20  C19 UNL     1       6.417  -8.282  28.107  1.00  0.00     0.042 C 
HETATM   21  C20 UNL     1       1.915  -7.450  27.442  1.00  0.00     0.030 A 
HETATM   22  C21 UNL     1       0.986  -8.236  26.591  1.00  0.00     0.070 C 
HETATM   23  N3  UNL     1       1.460  -6.404  28.140  1.00  0.00    -0.304 N 
ATOM     24  H3  UNL     1       0.509  -6.037  28.174  1.00  0.00     0.186 HD
HETATM   25  N4  UNL     1       2.545  -5.953  28.783  1.00  0.00    -0.298 N 
HETATM   26  H14 UNL     1       4.537  -4.625  30.222  1.00  0.00     0.166 HD
HETATM   27  H24 UNL     1       2.426  -5.152  29.389  1.00  0.00     0.187 HD
ENDROOT
BRANCH   1  28
HETATM   28  C2  UNL     1      11.535  -6.640  30.704  1.00  0.00     0.128 C 
HETATM   29  C1  UNL     1      10.966  -7.608  29.681  1.00  0.00     0.027 C 
ENDBRANCH   1  28
TORSDOF 1
ENDMDL
