MODEL 1
REMARK minimizedAffinity -9.87538052
REMARK  1 active torsions:
REMARK  status: ('A' for Active; 'I' for Inactive)
REMARK    1  A    between atoms: C2_2  and  N1_3 
ROOT
HETATM    1  N1  UNL     1      -6.155   3.006  12.147  1.00  0.00    -0.317 N 
HETATM    2  C3  UNL     1      -7.370   3.234  12.799  1.00  0.00     0.237 A 
HETATM    3  O1  UNL     1      -8.353   2.508  12.787  1.00  0.00    -0.272 OA
HETATM    4  C4  UNL     1      -7.247   4.581  13.545  1.00  0.00     0.063 A 
HETATM    5  C5  UNL     1      -8.252   5.579  12.969  1.00  0.00     0.030 C 
HETATM    6  C6  UNL     1      -7.467   4.361  15.041  1.00  0.00     0.030 C 
HETATM    7  C7  UNL     1      -5.821   4.984  13.237  1.00  0.00    -0.012 A 
HETATM    8  C8  UNL     1      -5.125   6.111  13.661  1.00  0.00     0.041 A 
HETATM    9  C9  UNL     1      -3.798   6.212  13.217  1.00  0.00     0.044 A 
HETATM   10  C10 UNL     1      -3.179   5.261  12.402  1.00  0.00     0.001 A 
HETATM   11  C11 UNL     1      -3.916   4.128  11.986  1.00  0.00     0.044 A 
HETATM   12  C12 UNL     1      -5.230   4.022  12.419  1.00  0.00     0.045 A 
HETATM   13  C13 UNL     1      -1.833   5.708  12.168  1.00  0.00    -0.017 A 
HETATM   14  C14 UNL     1      -1.679   6.918  12.830  1.00  0.00     0.069 A 
HETATM   15  N2  UNL     1      -2.867   7.195  13.460  1.00  0.00    -0.353 N 
HETATM   16  C15 UNL     1      -0.527   7.766  12.898  1.00  0.00     0.083 A 
HETATM   17  C16 UNL     1       0.738   7.591  12.363  1.00  0.00    -0.004 A 
HETATM   18  C17 UNL     1       1.259   6.460  11.541  1.00  0.00     0.043 C 
HETATM   19  C18 UNL     1       0.624   5.101  11.837  1.00  0.00     0.009 C 
HETATM   20  C19 UNL     1      -0.815   4.987  11.335  1.00  0.00     0.042 C 
HETATM   21  C20 UNL     1       1.458   8.760  12.750  1.00  0.00     0.030 A 
HETATM   22  C21 UNL     1       2.867   9.110  12.442  1.00  0.00     0.070 C 
HETATM   23  N3  UNL     1       0.705   9.591  13.477  1.00  0.00    -0.304 N 
ATOM     24  H3  UNL     1       0.971  10.488  13.883  1.00  0.00     0.186 HD
HETATM   25  N4  UNL     1      -0.481   8.972  13.546  1.00  0.00    -0.298 N 
HETATM   26  H14 UNL     1      -3.056   8.005  14.028  1.00  0.00     0.166 HD
HETATM   27  H24 UNL     1      -1.219   9.438  14.054  1.00  0.00     0.187 HD
ENDROOT
BRANCH   1  28
HETATM   28  C2  UNL     1      -5.871   1.812  11.383  1.00  0.00     0.128 C 
HETATM   29  C1  UNL     1      -4.475   1.279  11.654  1.00  0.00     0.027 C 
ENDBRANCH   1  28
TORSDOF 1
ENDMDL
